  0
SECTION
  2
ENTITIES
999
DXF created from EnergyPlus
999
Program Version,EnergyPlus, Version 9.2.0-921312fa1d, YMD=2021.11.29 17:16
999
Polygon Action,TRIANGULATE3DFACE
999
Color Scheme,Default
999
Text - True North
  0
TEXT
  8
1
  6
Continuous
 62
  3
 10
      -11.00000
 20
      -42.71777
 30
        0.10000
 40
 .25
  1
True North
 41
 0.0
  7
MONOTXT
210
0.0
220
0.0
230
1.0
999
Text - Building Title
  0
TEXT
  8
1
  6
Continuous
 62
  3
 10
      -14.00000
 20
      -46.71777
 30
        0.10000
 40
 .4
  1
Building - Warehouse
 41
 0.0
  7
MONOTXT
210
0.0
220
0.0
230
1.0
999
North Arrow Stem
  0
3DFACE
  8
1
 62
  3
 10
      -10.00000
 20
      -42.71777
 30
        0.10000
 11
      -10.00000
 21
      -42.71777
 31
        0.00000
 12
      -10.00000
 22
      -45.71777
 32
        0.00000
 13
      -10.00000
 23
      -45.71777
 33
        0.10000
999
North Arrow Head 1
  0
3DFACE
  8
1
 62
  3
 10
      -10.00000
 20
      -42.71777
 30
        0.10000
 11
      -10.00000
 21
      -42.71777
 31
        0.00000
 12
      -10.50000
 22
      -43.58380
 32
        0.00000
 13
      -10.50000
 23
      -43.58380
 33
        0.10000
999
North Arrow Head 2
  0
3DFACE
  8
1
 62
  3
 10
      -10.00000
 20
      -42.71777
 30
        0.10000
 11
      -10.00000
 21
      -42.71777
 31
        0.00000
 12
       -9.50000
 22
      -43.58380
 32
        0.00000
 13
       -9.50000
 23
      -43.58380
 33
        0.10000
999
North Arrow Side 1
  0
3DFACE
  8
1
 62
  3
 10
      -10.50000
 20
      -41.21777
 30
        0.10000
 11
      -10.50000
 21
      -41.21777
 31
        0.00000
 12
      -10.50000
 22
      -42.21777
 32
        0.00000
 13
      -10.50000
 23
      -42.21777
 33
        0.10000
999
North Arrow Side 2
  0
3DFACE
  8
1
 62
  3
 10
      -10.50000
 20
      -41.21777
 30
        0.10000
 11
      -10.50000
 21
      -41.21777
 31
        0.00000
 12
       -9.50000
 22
      -42.21777
 32
        0.00000
 13
       -9.50000
 23
      -42.21777
 33
        0.10000
999
North Arrow Side 3
  0
3DFACE
  8
1
 62
  3
 10
       -9.50000
 20
      -41.21777
 30
        0.10000
 11
       -9.50000
 21
      -41.21777
 31
        0.00000
 12
       -9.50000
 22
      -42.21777
 32
        0.00000
 13
       -9.50000
 23
      -42.21777
 33
        0.10000
999
Zone Names
999
Zone=1:ZONE1_OFFICE
999
Zone=2:ZONE2_FINE_STORAGE
999
Zone=3:ZONE3_BULK_STORAGE
999
ZONE1 OFFICE:OFFICE FRONT WALL
  0
3DFACE
  8
ZONE1_OFFICE
 62
 43
 10
        0.00000
 20
        0.00000
 30
        4.26699
 11
        0.00000
 21
        0.00000
 31
        0.00000
 12
        0.00000
 22
      -25.90674
 32
        0.00000
 13
        0.00000
 23
      -25.90674
 33
        4.26699
999
ZONE1 OFFICE:OFFICE FRONT WALL WINDOW 1
  0
3DFACE
  8
ZONE1_OFFICE
 62
143
 10
        0.00000
 20
       -3.65742
 30
        2.43930
 11
        0.00000
 21
       -3.65742
 31
        0.91436
 12
        0.00000
 22
       -7.31484
 32
        0.91436
 13
        0.00000
 23
       -7.31484
 33
        2.43930
999
ZONE1 OFFICE:OFFICE FRONT WALL WINDOW2
  0
3DFACE
  8
ZONE1_OFFICE
 62
143
 10
        0.00000
 20
      -18.59189
 30
        2.43930
 11
        0.00000
 21
      -18.59189
 31
        0.91436
 12
        0.00000
 22
      -22.24931
 32
        0.91436
 13
        0.00000
 23
      -22.24931
 33
        2.43930
999
ZONE1 OFFICE:OFFICE FRONT DOOR
  0
3DFACE
  8
ZONE1_OFFICE
 62
 45
 10
        0.00000
 20
      -12.03901
 30
        2.13350
 11
        0.00000
 21
      -12.03901
 31
        0.00000
 12
        0.00000
 22
      -12.95332
 32
        0.00000
 13
        0.00000
 23
      -12.95332
 33
        2.13350
999
ZONE1 OFFICE:OFFICE RIGHT WALL
  0
3DFACE
  8
ZONE1_OFFICE
 62
 43
 10
        0.00000
 20
      -25.90674
 30
        4.26699
 11
        0.00000
 21
      -25.90674
 31
        0.00000
 12
        9.14355
 22
      -25.90674
 32
        0.00000
 13
        9.14355
 23
      -25.90674
 33
        4.26699
999
ZONE1 OFFICE:OFFICE REAR WALL
  0
3DFACE
  8
ZONE1_OFFICE
 62
 43
 10
        9.14355
 20
      -25.90674
 30
        4.26699
 11
        9.14355
 21
      -25.90674
 31
        0.00000
 12
        9.14355
 22
        0.00000
 32
        0.00000
 13
        9.14355
 23
        0.00000
 33
        4.26699
999
ZONE1 OFFICE:OFFICE LEFT WALL
  0
3DFACE
  8
ZONE1_OFFICE
 62
 43
 10
        9.14355
 20
        0.00000
 30
        4.26699
 11
        9.14355
 21
        0.00000
 31
        0.00000
 12
        0.00000
 22
        0.00000
 32
        0.00000
 13
        0.00000
 23
        0.00000
 33
        4.26699
999
ZONE1 OFFICE:OFFICE LEFT WALL WINDOW1
  0
3DFACE
  8
ZONE1_OFFICE
 62
143
 10
        7.51905
 20
        0.00000
 30
        2.43930
 11
        7.51905
 21
        0.00000
 31
        0.91436
 12
        5.38555
 22
        0.00000
 32
        0.91436
 13
        5.38555
 23
        0.00000
 33
        2.43930
999
ZONE1 OFFICE:OFFICE LEFT WALL WINDOW2
  0
3DFACE
  8
ZONE1_OFFICE
 62
143
 10
        3.75800
 20
        0.00000
 30
        2.43930
 11
        3.75800
 21
        0.00000
 31
        0.91436
 12
        1.62450
 22
        0.00000
 32
        0.91436
 13
        1.62450
 23
        0.00000
 33
        2.43930
999
ZONE1 OFFICE:OFFICE LEFT WALL DOOR
  0
3DFACE
  8
ZONE1_OFFICE
 62
 45
 10
        5.02895
 20
        0.00000
 30
        2.13350
 11
        5.02895
 21
        0.00000
 31
        0.00000
 12
        4.11460
 22
        0.00000
 32
        0.00000
 13
        4.11460
 23
        0.00000
 33
        2.13350
999
ZONE1 OFFICE:OFFICE FLOOR
  0
3DFACE
  8
ZONE1_OFFICE
 62
  8
 10
        9.14355
 20
      -25.90674
 30
        0.00000
 11
        0.00000
 21
      -25.90674
 31
        0.00000
 12
        0.00000
 22
        0.00000
 32
        0.00000
 13
        9.14355
 23
        0.00000
 33
        0.00000
999
ZONE1 OFFICE:OFFICE ROOF
  0
3DFACE
  8
ZONE1_OFFICE
 62
 15
 10
        0.00000
 20
      -25.90674
 30
        4.26699
 11
        9.14355
 21
      -25.90674
 31
        4.26699
 12
        9.14355
 22
        0.00000
 32
        4.26699
 13
        0.00000
 23
        0.00000
 33
        4.26699
999
ZONE2 FINE STORAGE:FINE STORAGE FRONT WALL
  0
3DFACE
  8
ZONE2_FINE_STORAGE
 62
 43
 10
        0.00000
 20
      -25.90674
 30
        8.53398
 11
        0.00000
 21
      -25.90674
 31
        0.00000
 12
        0.00000
 22
      -45.71777
 32
        0.00000
 13
        0.00000
 23
      -45.71777
 33
        8.53398
999
ZONE2 FINE STORAGE:FINE STORAGE OVERHEAD DOOR1
  0
3DFACE
  8
ZONE2_FINE_STORAGE
 62
 45
 10
        0.00000
 20
      -33.47966
 30
        2.43825
 11
        0.00000
 21
      -33.47966
 31
        0.00000
 12
        0.00000
 22
      -36.52754
 32
        0.00000
 13
        0.00000
 23
      -36.52754
 33
        2.43825
999
ZONE2 FINE STORAGE:FINE STORAGE RIGHT WALL
  0
3DFACE
  8
ZONE2_FINE_STORAGE
 62
 43
 10
        0.00000
 20
      -45.71777
 30
        8.53398
 11
        0.00000
 21
      -45.71777
 31
        0.00000
 12
       30.47851
 22
      -45.71777
 32
        0.00000
 13
       30.47851
 23
      -45.71777
 33
        8.53398
999
ZONE2 FINE STORAGE:FINE STORAGE OVERHEAD DOOR2
  0
3DFACE
  8
ZONE2_FINE_STORAGE
 62
 45
 10
        4.94167
 20
      -45.71777
 30
        2.43825
 11
        4.94167
 21
      -45.71777
 31
        0.00000
 12
        7.98955
 22
      -45.71777
 32
        0.00000
 13
        7.98955
 23
      -45.71777
 33
        2.43825
999
ZONE2 FINE STORAGE:FINE STORAGE OVERHEAD DOOR3
  0
3DFACE
  8
ZONE2_FINE_STORAGE
 62
 45
 10
       23.08747
 20
      -45.71777
 30
        2.43825
 11
       23.08747
 21
      -45.71777
 31
        0.00000
 12
       26.13536
 22
      -45.71777
 32
        0.00000
 13
       26.13536
 23
      -45.71777
 33
        2.43825
999
ZONE2 FINE STORAGE:FINE STORAGE RIGHT DOOR
  0
3DFACE
  8
ZONE2_FINE_STORAGE
 62
 45
 10
       14.78208
 20
      -45.71777
 30
        2.13350
 11
       14.78208
 21
      -45.71777
 31
        0.00000
 12
       15.69643
 22
      -45.71777
 32
        0.00000
 13
       15.69643
 23
      -45.71777
 33
        2.13350
999
ZONE2 FINE STORAGE:FINE STORAGE LEFT WALL
  0
3DFACE
  8
ZONE2_FINE_STORAGE
 62
 43
 10
       30.47851
 20
        0.00000
 30
        8.53398
 11
       30.47851
 21
        0.00000
 31
        0.00000
 12
        9.14355
 22
        0.00000
 32
        0.00000
 13
        9.14355
 23
        0.00000
 33
        8.53398
999
ZONE2 FINE STORAGE:FINE STORAGE OVERHEAD DOOR4
  0
3DFACE
  8
ZONE2_FINE_STORAGE
 62
 45
 10
       28.01558
 20
        0.00000
 30
        2.43825
 11
       28.01558
 21
        0.00000
 31
        0.00000
 12
       24.96770
 22
        0.00000
 32
        0.00000
 13
       24.96770
 23
        0.00000
 33
        2.43825
999
ZONE2 FINE STORAGE:FINE STORAGE LEFT DOOR
  0
3DFACE
  8
ZONE2_FINE_STORAGE
 62
 45
 10
       19.35386
 20
        0.00000
 30
        2.13350
 11
       20.26821
 21
        0.00000
 31
        2.13350
 12
       20.26821
 22
        0.00000
 32
        0.00000
 13
       19.35386
 23
        0.00000
 33
        0.00000
999
ZONE2 FINE STORAGE:FINE STORAGE OFFICE FRONT WALL
  0
3DFACE
  8
ZONE2_FINE_STORAGE
 62
 43
 10
        0.00000
 20
        0.00000
 30
        8.53398
 11
        0.00000
 21
        0.00000
 31
        4.26699
 12
        0.00000
 22
      -25.90674
 32
        4.26699
 13
        0.00000
 23
      -25.90674
 33
        8.53398
999
ZONE2 FINE STORAGE:FINE STORAGE OFFICE LEFT WALL
  0
3DFACE
  8
ZONE2_FINE_STORAGE
 62
 43
 10
        9.14355
 20
        0.00000
 30
        8.53398
 11
        9.14355
 21
        0.00000
 31
        4.26699
 12
        0.00000
 22
        0.00000
 32
        4.26699
 13
        0.00000
 23
        0.00000
 33
        8.53398
999
ZONE2 FINE STORAGE:iz-OFFICE RIGHT WALL
  0
3DFACE
  8
ZONE2_FINE_STORAGE
 62
 43
 10
        9.14355
 20
      -25.90674
 30
        4.26699
 11
        9.14355
 21
      -25.90674
 31
        0.00000
 12
        0.00000
 22
      -25.90674
 32
        0.00000
 13
        0.00000
 23
      -25.90674
 33
        4.26699
999
ZONE2 FINE STORAGE:iz-OFFICE REAR WALL
  0
3DFACE
  8
ZONE2_FINE_STORAGE
 62
 43
 10
        9.14355
 20
        0.00000
 30
        4.26699
 11
        9.14355
 21
        0.00000
 31
        0.00000
 12
        9.14355
 22
      -25.90674
 32
        0.00000
 13
        9.14355
 23
      -25.90674
 33
        4.26699
999
ZONE2 FINE STORAGE:iz-BULK STORAGE FRONT WALL
  0
3DFACE
  8
ZONE2_FINE_STORAGE
 62
 43
 10
       30.47851
 20
        0.00000
 30
        0.00000
 11
       30.47851
 21
      -45.71777
 31
        0.00000
 12
       30.47851
 22
      -45.71777
 32
        8.53398
 13
       30.47851
 23
        0.00000
 33
        8.53398
999
ZONE2 FINE STORAGE:FINE STORAGE FLOOR
  0
3DFACE
  8
ZONE2_FINE_STORAGE
 62
  8
 10
       30.47851
 20
      -45.71777
 30
        0.00000
 11
        0.00000
 21
      -45.71777
 31
        0.00000
 12
        0.00000
 22
      -25.90674
 32
        0.00000
 13
        0.00000
 23
      -25.90674
 33
        0.00000
  0
3DFACE
  8
ZONE2_FINE_STORAGE
 62
  8
 10
       30.47851
 20
      -45.71777
 30
        0.00000
 11
        0.00000
 21
      -25.90674
 31
        0.00000
 12
        9.14355
 22
      -25.90674
 32
        0.00000
 13
        9.14355
 23
      -25.90674
 33
        0.00000
  0
3DFACE
  8
ZONE2_FINE_STORAGE
 62
  8
 10
       30.47851
 20
      -45.71777
 30
        0.00000
 11
        9.14355
 21
      -25.90674
 31
        0.00000
 12
        9.14355
 22
        0.00000
 32
        0.00000
 13
        9.14355
 23
        0.00000
 33
        0.00000
  0
3DFACE
  8
ZONE2_FINE_STORAGE
 62
  8
 10
       30.47851
 20
      -45.71777
 30
        0.00000
 11
        9.14355
 21
        0.00000
 31
        0.00000
 12
       30.47851
 22
        0.00000
 32
        0.00000
 13
       30.47851
 23
        0.00000
 33
        0.00000
999
ZONE2 FINE STORAGE:iz-OFFICE ROOF
  0
3DFACE
  8
ZONE2_FINE_STORAGE
 62
  8
 10
        0.00000
 20
        0.00000
 30
        4.26699
 11
        9.14355
 21
        0.00000
 31
        4.26699
 12
        9.14355
 22
      -25.90674
 32
        4.26699
 13
        0.00000
 23
      -25.90674
 33
        4.26699
999
ZONE2 FINE STORAGE:FINE STORAGE ROOF
  0
3DFACE
  8
ZONE2_FINE_STORAGE
 62
 15
 10
        0.00000
 20
      -45.71777
 30
        8.53398
 11
       30.47851
 21
      -45.71777
 31
        8.53398
 12
       30.47851
 22
        0.00000
 32
        8.53398
 13
        0.00000
 23
        0.00000
 33
        8.53398
999
ZONE2 FINE STORAGE:FINESTORAGE_SKYLIGHT_1
  0
3DFACE
  8
ZONE2_FINE_STORAGE
 62
143
 10
       18.43891
 20
      -10.82040
 30
        8.53398
 11
       18.43891
 21
      -12.03960
 31
        8.53398
 12
       19.65811
 22
      -12.03960
 32
        8.53398
 13
       19.65811
 23
      -10.82040
 33
        8.53398
999
ZONE2 FINE STORAGE:FINESTORAGE_SKYLIGHT_6
  0
3DFACE
  8
ZONE2_FINE_STORAGE
 62
143
 10
       18.43891
 20
      -16.53540
 30
        8.53398
 11
       18.43891
 21
      -17.75460
 31
        8.53398
 12
       19.65811
 22
      -17.75460
 32
        8.53398
 13
       19.65811
 23
      -16.53540
 33
        8.53398
999
ZONE2 FINE STORAGE:FINESTORAGE_SKYLIGHT_7
  0
3DFACE
  8
ZONE2_FINE_STORAGE
 62
143
 10
       18.43891
 20
      -22.25040
 30
        8.53398
 11
       18.43891
 21
      -23.46960
 31
        8.53398
 12
       19.65811
 22
      -23.46960
 32
        8.53398
 13
       19.65811
 23
      -22.25040
 33
        8.53398
999
ZONE2 FINE STORAGE:FINESTORAGE_SKYLIGHT_8
  0
3DFACE
  8
ZONE2_FINE_STORAGE
 62
143
 10
       18.43891
 20
      -27.96540
 30
        8.53398
 11
       18.43891
 21
      -29.18460
 31
        8.53398
 12
       19.65811
 22
      -29.18460
 32
        8.53398
 13
       19.65811
 23
      -27.96540
 33
        8.53398
999
ZONE2 FINE STORAGE:FINESTORAGE_SKYLIGHT_9
  0
3DFACE
  8
ZONE2_FINE_STORAGE
 62
143
 10
       18.43891
 20
      -33.68040
 30
        8.53398
 11
       18.43891
 21
      -34.89960
 31
        8.53398
 12
       19.65811
 22
      -34.89960
 32
        8.53398
 13
       19.65811
 23
      -33.68040
 33
        8.53398
999
ZONE2 FINE STORAGE:FINESTORAGE_SKYLIGHT_10
  0
3DFACE
  8
ZONE2_FINE_STORAGE
 62
143
 10
       18.43891
 20
      -39.39540
 30
        8.53398
 11
       18.43891
 21
      -40.61460
 31
        8.53398
 12
       19.65811
 22
      -40.61460
 32
        8.53398
 13
       19.65811
 23
      -39.39540
 33
        8.53398
999
ZONE2 FINE STORAGE:FINESTORAGE_SKYLIGHT_5
  0
3DFACE
  8
ZONE2_FINE_STORAGE
 62
143
 10
       26.05891
 20
      -39.39540
 30
        8.53398
 11
       26.05891
 21
      -40.61460
 31
        8.53398
 12
       27.27811
 22
      -40.61460
 32
        8.53398
 13
       27.27811
 23
      -39.39540
 33
        8.53398
999
ZONE2 FINE STORAGE:FINESTORAGE_SKYLIGHT_4
  0
3DFACE
  8
ZONE2_FINE_STORAGE
 62
143
 10
       26.05891
 20
      -33.68040
 30
        8.53398
 11
       26.05891
 21
      -34.89960
 31
        8.53398
 12
       27.27811
 22
      -34.89960
 32
        8.53398
 13
       27.27811
 23
      -33.68040
 33
        8.53398
999
ZONE2 FINE STORAGE:FINESTORAGE_SKYLIGHT_3
  0
3DFACE
  8
ZONE2_FINE_STORAGE
 62
143
 10
       26.05891
 20
      -27.96540
 30
        8.53398
 11
       26.05891
 21
      -29.18460
 31
        8.53398
 12
       27.27811
 22
      -29.18460
 32
        8.53398
 13
       27.27811
 23
      -27.96540
 33
        8.53398
999
ZONE2 FINE STORAGE:FINESTORAGE_SKYLIGHT_2
  0
3DFACE
  8
ZONE2_FINE_STORAGE
 62
143
 10
       26.05891
 20
      -22.25040
 30
        8.53398
 11
       26.05891
 21
      -23.46960
 31
        8.53398
 12
       27.27811
 22
      -23.46960
 32
        8.53398
 13
       27.27811
 23
      -22.25040
 33
        8.53398
999
ZONE2 FINE STORAGE:FINESTORAGE_SKYLIGHT_14
  0
3DFACE
  8
ZONE2_FINE_STORAGE
 62
143
 10
       26.05891
 20
      -16.53540
 30
        8.53398
 11
       26.05891
 21
      -17.75460
 31
        8.53398
 12
       27.27811
 22
      -17.75460
 32
        8.53398
 13
       27.27811
 23
      -16.53540
 33
        8.53398
999
ZONE2 FINE STORAGE:FINESTORAGE_SKYLIGHT_13
  0
3DFACE
  8
ZONE2_FINE_STORAGE
 62
143
 10
       26.05891
 20
      -10.82040
 30
        8.53398
 11
       26.05891
 21
      -12.03960
 31
        8.53398
 12
       27.27811
 22
      -12.03960
 32
        8.53398
 13
       27.27811
 23
      -10.82040
 33
        8.53398
999
ZONE2 FINE STORAGE:FINESTORAGE_SKYLIGHT_12
  0
3DFACE
  8
ZONE2_FINE_STORAGE
 62
143
 10
       26.05891
 20
       -5.10540
 30
        8.53398
 11
       26.05891
 21
       -6.32460
 31
        8.53398
 12
       27.27811
 22
       -6.32460
 32
        8.53398
 13
       27.27811
 23
       -5.10540
 33
        8.53398
999
ZONE2 FINE STORAGE:FINESTORAGE_SKYLIGHT_11
  0
3DFACE
  8
ZONE2_FINE_STORAGE
 62
143
 10
       18.43891
 20
       -5.10540
 30
        8.53398
 11
       18.43891
 21
       -6.32460
 31
        8.53398
 12
       19.65811
 22
       -6.32460
 32
        8.53398
 13
       19.65811
 23
       -5.10540
 33
        8.53398
999
ZONE3 BULK STORAGE:BULK STORAGE FRONT WALL
  0
3DFACE
  8
ZONE3_BULK_STORAGE
 62
 43
 10
       30.47851
 20
        0.00000
 30
        8.53398
 11
       30.47851
 21
      -45.71777
 31
        8.53398
 12
       30.47851
 22
      -45.71777
 32
        0.00000
 13
       30.47851
 23
        0.00000
 33
        0.00000
999
ZONE3 BULK STORAGE:BULK STORAGE RIGHT WALL
  0
3DFACE
  8
ZONE3_BULK_STORAGE
 62
 43
 10
       30.47851
 20
      -45.71777
 30
        8.53398
 11
       30.47851
 21
      -45.71777
 31
        0.00000
 12
      100.57909
 22
      -45.71777
 32
        0.00000
 13
      100.57909
 23
      -45.71777
 33
        8.53398
999
ZONE3 BULK STORAGE:BULK STORAGE OVERHEAD DOOR8
  0
3DFACE
  8
ZONE3_BULK_STORAGE
 62
 45
 10
       37.09305
 20
      -45.71777
 30
        2.43825
 11
       37.09305
 21
      -45.71777
 31
        0.00000
 12
       39.53133
 22
      -45.71777
 32
        0.00000
 13
       39.53133
 23
      -45.71777
 33
        2.43825
999
ZONE3 BULK STORAGE:BULK STORAGE OVERHEAD DOOR9
  0
3DFACE
  8
ZONE3_BULK_STORAGE
 62
 45
 10
       55.27376
 20
      -45.71777
 30
        2.43825
 11
       55.27376
 21
      -45.71777
 31
        0.00000
 12
       57.71204
 22
      -45.71777
 32
        0.00000
 13
       57.71204
 23
      -45.71777
 33
        2.43825
999
ZONE3 BULK STORAGE:BULK STORAGE OVERHEAD DOOR10
  0
3DFACE
  8
ZONE3_BULK_STORAGE
 62
 45
 10
       73.31506
 20
      -45.71777
 30
        2.43825
 11
       73.31506
 21
      -45.71777
 31
        0.00000
 12
       75.75334
 22
      -45.71777
 32
        0.00000
 13
       75.75334
 23
      -45.71777
 33
        2.43825
999
ZONE3 BULK STORAGE:BULK STORAGE OVERHEAD DOOR11
  0
3DFACE
  8
ZONE3_BULK_STORAGE
 62
 45
 10
       89.88776
 20
      -45.71777
 30
        2.43825
 11
       89.88776
 21
      -45.71777
 31
        0.00000
 12
       92.32605
 22
      -45.71777
 32
        0.00000
 13
       92.32605
 23
      -45.71777
 33
        2.43825
999
ZONE3 BULK STORAGE:BULK STORAGE DOOR1
  0
3DFACE
  8
ZONE3_BULK_STORAGE
 62
 45
 10
       47.54648
 20
      -45.71777
 30
        2.13350
 11
       47.54648
 21
      -45.71777
 31
        0.00000
 12
       48.46084
 22
      -45.71777
 32
        0.00000
 13
       48.46084
 23
      -45.71777
 33
        2.13350
999
ZONE3 BULK STORAGE:BULK STORAGE DOOR2
  0
3DFACE
  8
ZONE3_BULK_STORAGE
 62
 45
 10
       65.07163
 20
      -45.71777
 30
        2.13350
 11
       65.07163
 21
      -45.71777
 31
        0.00000
 12
       65.98598
 22
      -45.71777
 32
        0.00000
 13
       65.98598
 23
      -45.71777
 33
        2.13350
999
ZONE3 BULK STORAGE:BULK STORAGE DOOR3
  0
3DFACE
  8
ZONE3_BULK_STORAGE
 62
 45
 10
       82.59677
 20
      -45.71777
 30
        2.13350
 11
       82.59677
 21
      -45.71777
 31
        0.00000
 12
       83.51113
 22
      -45.71777
 32
        0.00000
 13
       83.51113
 23
      -45.71777
 33
        2.13350
999
ZONE3 BULK STORAGE:BULK STORAGE REAR WALL
  0
3DFACE
  8
ZONE3_BULK_STORAGE
 62
 43
 10
      100.57909
 20
      -45.71777
 30
        8.53398
 11
      100.57909
 21
      -45.71777
 31
        0.00000
 12
      100.57909
 22
        0.00000
 32
        0.00000
 13
      100.57909
 23
        0.00000
 33
        8.53398
999
ZONE3 BULK STORAGE:BULK STORAGE OVERHEAD DOOR12
  0
3DFACE
  8
ZONE3_BULK_STORAGE
 62
 45
 10
      100.57909
 20
      -40.43907
 30
        2.43825
 11
      100.57909
 21
      -40.43907
 31
        0.00000
 12
      100.57909
 22
      -37.39119
 32
        0.00000
 13
      100.57909
 23
      -37.39119
 33
        2.43825
999
ZONE3 BULK STORAGE:BULK STORAGE OVERHEAD DOOR13
  0
3DFACE
  8
ZONE3_BULK_STORAGE
 62
 45
 10
      100.57909
 20
      -30.77144
 30
        2.43825
 11
      100.57909
 21
      -30.77144
 31
        0.00000
 12
      100.57909
 22
      -27.72356
 32
        0.00000
 13
      100.57909
 23
      -27.72356
 33
        2.43825
999
ZONE3 BULK STORAGE:BULK STORAGE OVERHEAD DOOR14
  0
3DFACE
  8
ZONE3_BULK_STORAGE
 62
 45
 10
      100.57909
 20
      -16.68777
 30
        2.43825
 11
      100.57909
 21
      -16.68777
 31
        0.00000
 12
      100.57909
 22
      -13.63989
 32
        0.00000
 13
      100.57909
 23
      -13.63989
 33
        2.43825
999
ZONE3 BULK STORAGE:BULK STORAGE OVERHEAD DOOR15
  0
3DFACE
  8
ZONE3_BULK_STORAGE
 62
 45
 10
      100.57909
 20
       -7.32238
 30
        2.43825
 11
      100.57909
 21
       -7.32238
 31
        0.00000
 12
      100.57909
 22
       -4.27450
 32
        0.00000
 13
      100.57909
 23
       -4.27450
 33
        2.43825
999
ZONE3 BULK STORAGE:BULK STORAGE DOOR4
  0
3DFACE
  8
ZONE3_BULK_STORAGE
 62
 45
 10
      100.57909
 20
      -23.35218
 30
        2.13350
 11
      100.57909
 21
      -23.35218
 31
        0.00000
 12
      100.57909
 22
      -22.43783
 32
        0.00000
 13
      100.57909
 23
      -22.43783
 33
        2.13350
999
ZONE3 BULK STORAGE:BULK STORAGE LEFT WALL
  0
3DFACE
  8
ZONE3_BULK_STORAGE
 62
 43
 10
      100.57909
 20
        0.00000
 30
        8.53398
 11
      100.57909
 21
        0.00000
 31
        0.00000
 12
       30.47851
 22
        0.00000
 32
        0.00000
 13
       30.47851
 23
        0.00000
 33
        8.53398
999
ZONE3 BULK STORAGE:BULK STORAGE OVERHEAD DOOR1
  0
3DFACE
  8
ZONE3_BULK_STORAGE
 62
 45
 10
       93.95002
 20
        0.00000
 30
        2.43825
 11
       93.95002
 21
        0.00000
 31
        0.00000
 12
       90.90214
 22
        0.00000
 32
        0.00000
 13
       90.90214
 23
        0.00000
 33
        2.43825
999
ZONE3 BULK STORAGE:BULK STORAGE OVERHEAD DOOR2
  0
3DFACE
  8
ZONE3_BULK_STORAGE
 62
 45
 10
       84.88266
 20
        0.00000
 30
        2.43825
 11
       84.88266
 21
        0.00000
 31
        0.00000
 12
       81.83478
 22
        0.00000
 32
        0.00000
 13
       81.83478
 23
        0.00000
 33
        2.43825
999
ZONE3 BULK STORAGE:BULK STORAGE OVERHEAD DOOR3
  0
3DFACE
  8
ZONE3_BULK_STORAGE
 62
 45
 10
       75.81530
 20
        0.00000
 30
        2.43825
 11
       75.81530
 21
        0.00000
 31
        0.00000
 12
       72.76742
 22
        0.00000
 32
        0.00000
 13
       72.76742
 23
        0.00000
 33
        2.43825
999
ZONE3 BULK STORAGE:BULK STORAGE OVERHEAD DOOR4
  0
3DFACE
  8
ZONE3_BULK_STORAGE
 62
 45
 10
       66.74794
 20
        0.00000
 30
        2.43825
 11
       66.74794
 21
        0.00000
 31
        0.00000
 12
       63.70006
 22
        0.00000
 32
        0.00000
 13
       63.70006
 23
        0.00000
 33
        2.43825
999
ZONE3 BULK STORAGE:BULK STORAGE OVERHEAD DOOR5
  0
3DFACE
  8
ZONE3_BULK_STORAGE
 62
 45
 10
       57.68059
 20
        0.00000
 30
        2.43825
 11
       57.68059
 21
        0.00000
 31
        0.00000
 12
       54.63271
 22
        0.00000
 32
        0.00000
 13
       54.63271
 23
        0.00000
 33
        2.43825
999
ZONE3 BULK STORAGE:BULK STORAGE OVERHEAD DOOR6
  0
3DFACE
  8
ZONE3_BULK_STORAGE
 62
 45
 10
       48.61323
 20
        0.00000
 30
        2.43825
 11
       48.61323
 21
        0.00000
 31
        0.00000
 12
       45.56535
 22
        0.00000
 32
        0.00000
 13
       45.56535
 23
        0.00000
 33
        2.43825
999
ZONE3 BULK STORAGE:BULK STORAGE OVERHEAD DOOR7
  0
3DFACE
  8
ZONE3_BULK_STORAGE
 62
 45
 10
       39.54587
 20
        0.00000
 30
        2.43825
 11
       39.54587
 21
        0.00000
 31
        0.00000
 12
       36.49799
 22
        0.00000
 32
        0.00000
 13
       36.49799
 23
        0.00000
 33
        2.43825
999
ZONE3 BULK STORAGE:BULK STORAGE DOOR5
  0
3DFACE
  8
ZONE3_BULK_STORAGE
 62
 45
 10
       70.34506
 20
        0.00000
 30
        2.13350
 11
       70.34506
 21
        0.00000
 31
        0.00000
 12
       69.43070
 22
        0.00000
 32
        0.00000
 13
       69.43070
 23
        0.00000
 33
        2.13350
999
ZONE3 BULK STORAGE:BULK STORAGE FLOOR
  0
3DFACE
  8
ZONE3_BULK_STORAGE
 62
  8
 10
      100.57909
 20
      -45.71777
 30
        0.00000
 11
       30.47851
 21
      -45.71777
 31
        0.00000
 12
       30.47851
 22
        0.00000
 32
        0.00000
 13
      100.57909
 23
        0.00000
 33
        0.00000
999
ZONE3 BULK STORAGE:BULK STORAGE ROOF
  0
3DFACE
  8
ZONE3_BULK_STORAGE
 62
 15
 10
      100.57909
 20
        0.00000
 30
        8.53398
 11
       30.47851
 21
        0.00000
 31
        8.53398
 12
       30.47851
 22
      -45.71777
 32
        8.53398
 13
      100.57909
 23
      -45.71777
 33
        8.53398
999
ZONE3 BULK STORAGE:SKYLIGHT_R8C1
  0
3DFACE
  8
ZONE3_BULK_STORAGE
 62
143
 10
       34.44091
 20
       -2.71049
 30
        8.53398
 11
       34.44091
 21
       -3.92969
 31
        8.53398
 12
       35.66011
 22
       -3.92969
 32
        8.53398
 13
       35.66011
 23
       -2.71049
 33
        8.53398
999
ZONE3 BULK STORAGE:SKYLIGHT_R8C2
  0
3DFACE
  8
ZONE3_BULK_STORAGE
 62
143
 10
       43.07691
 20
       -2.71049
 30
        8.53398
 11
       43.07691
 21
       -3.92969
 31
        8.53398
 12
       44.29611
 22
       -3.92969
 32
        8.53398
 13
       44.29611
 23
       -2.71049
 33
        8.53398
999
ZONE3 BULK STORAGE:SKYLIGHT_R8C4
  0
3DFACE
  8
ZONE3_BULK_STORAGE
 62
143
 10
       60.34891
 20
       -2.71049
 30
        8.53398
 11
       60.34891
 21
       -3.92969
 31
        8.53398
 12
       61.56811
 22
       -3.92969
 32
        8.53398
 13
       61.56811
 23
       -2.71049
 33
        8.53398
999
ZONE3 BULK STORAGE:SKYLIGHT_R1C2
  0
3DFACE
  8
ZONE3_BULK_STORAGE
 62
143
 10
       43.07691
 20
      -41.75537
 30
        8.53398
 11
       43.07691
 21
      -42.97457
 31
        8.53398
 12
       44.29611
 22
      -42.97457
 32
        8.53398
 13
       44.29611
 23
      -41.75537
 33
        8.53398
999
ZONE3 BULK STORAGE:SKYLIGHT_R1C1
  0
3DFACE
  8
ZONE3_BULK_STORAGE
 62
143
 10
       34.44091
 20
      -41.75537
 30
        8.53398
 11
       34.44091
 21
      -42.97457
 31
        8.53398
 12
       35.66011
 22
      -42.97457
 32
        8.53398
 13
       35.66011
 23
      -41.75537
 33
        8.53398
999
ZONE3 BULK STORAGE:SKYLIGHT_R1C4
  0
3DFACE
  8
ZONE3_BULK_STORAGE
 62
143
 10
       60.34891
 20
      -41.75537
 30
        8.53398
 11
       60.34891
 21
      -42.97457
 31
        8.53398
 12
       61.56811
 22
      -42.97457
 32
        8.53398
 13
       61.56811
 23
      -41.75537
 33
        8.53398
999
ZONE3 BULK STORAGE:SKYLIGHT_R1C3
  0
3DFACE
  8
ZONE3_BULK_STORAGE
 62
143
 10
       51.71291
 20
      -41.75537
 30
        8.53398
 11
       51.71291
 21
      -42.97457
 31
        8.53398
 12
       52.93211
 22
      -42.97457
 32
        8.53398
 13
       52.93211
 23
      -41.75537
 33
        8.53398
999
ZONE3 BULK STORAGE:SKYLIGHT_R2C1
  0
3DFACE
  8
ZONE3_BULK_STORAGE
 62
143
 10
       34.44091
 20
      -36.17753
 30
        8.53398
 11
       34.44091
 21
      -37.39673
 31
        8.53398
 12
       35.66011
 22
      -37.39673
 32
        8.53398
 13
       35.66011
 23
      -36.17753
 33
        8.53398
999
ZONE3 BULK STORAGE:SKYLIGHT_R2C2
  0
3DFACE
  8
ZONE3_BULK_STORAGE
 62
143
 10
       43.07691
 20
      -36.17753
 30
        8.53398
 11
       43.07691
 21
      -37.39673
 31
        8.53398
 12
       44.29611
 22
      -37.39673
 32
        8.53398
 13
       44.29611
 23
      -36.17753
 33
        8.53398
999
ZONE3 BULK STORAGE:SKYLIGHT_R2C3
  0
3DFACE
  8
ZONE3_BULK_STORAGE
 62
143
 10
       51.71291
 20
      -36.17753
 30
        8.53398
 11
       51.71291
 21
      -37.39673
 31
        8.53398
 12
       52.93211
 22
      -37.39673
 32
        8.53398
 13
       52.93211
 23
      -36.17753
 33
        8.53398
999
ZONE3 BULK STORAGE:SKYLIGHT_R2C4
  0
3DFACE
  8
ZONE3_BULK_STORAGE
 62
143
 10
       60.34891
 20
      -36.17753
 30
        8.53398
 11
       60.34891
 21
      -37.39673
 31
        8.53398
 12
       61.56811
 22
      -37.39673
 32
        8.53398
 13
       61.56811
 23
      -36.17753
 33
        8.53398
999
ZONE3 BULK STORAGE:SKYLIGHT_R3C4
  0
3DFACE
  8
ZONE3_BULK_STORAGE
 62
143
 10
       51.71291
 20
      -30.59969
 30
        8.53398
 11
       51.71291
 21
      -31.81889
 31
        8.53398
 12
       52.93211
 22
      -31.81889
 32
        8.53398
 13
       52.93211
 23
      -30.59969
 33
        8.53398
999
ZONE3 BULK STORAGE:SKYLIGHT_R3C2
  0
3DFACE
  8
ZONE3_BULK_STORAGE
 62
143
 10
       43.07691
 20
      -30.59969
 30
        8.53398
 11
       43.07691
 21
      -31.81889
 31
        8.53398
 12
       44.29611
 22
      -31.81889
 32
        8.53398
 13
       44.29611
 23
      -30.59969
 33
        8.53398
999
ZONE3 BULK STORAGE:SKYLIGHT_R3C3
  0
3DFACE
  8
ZONE3_BULK_STORAGE
 62
143
 10
       60.34891
 20
      -30.59969
 30
        8.53398
 11
       60.34891
 21
      -31.81889
 31
        8.53398
 12
       61.56811
 22
      -31.81889
 32
        8.53398
 13
       61.56811
 23
      -30.59969
 33
        8.53398
999
ZONE3 BULK STORAGE:SKYLIGHT_R3C1
  0
3DFACE
  8
ZONE3_BULK_STORAGE
 62
143
 10
       34.44091
 20
      -30.59969
 30
        8.53398
 11
       34.44091
 21
      -31.81889
 31
        8.53398
 12
       35.66011
 22
      -31.81889
 32
        8.53398
 13
       35.66011
 23
      -30.59969
 33
        8.53398
999
ZONE3 BULK STORAGE:SKYLIGHT_R4C4
  0
3DFACE
  8
ZONE3_BULK_STORAGE
 62
143
 10
       60.34891
 20
      -25.02185
 30
        8.53398
 11
       60.34891
 21
      -26.24105
 31
        8.53398
 12
       61.56811
 22
      -26.24105
 32
        8.53398
 13
       61.56811
 23
      -25.02185
 33
        8.53398
999
ZONE3 BULK STORAGE:SKYLIGHT_R4C3
  0
3DFACE
  8
ZONE3_BULK_STORAGE
 62
143
 10
       51.71291
 20
      -25.02185
 30
        8.53398
 11
       51.71291
 21
      -26.24105
 31
        8.53398
 12
       52.93211
 22
      -26.24105
 32
        8.53398
 13
       52.93211
 23
      -25.02185
 33
        8.53398
999
ZONE3 BULK STORAGE:SKYLIGHT_R4C2
  0
3DFACE
  8
ZONE3_BULK_STORAGE
 62
143
 10
       43.07691
 20
      -25.02185
 30
        8.53398
 11
       43.07691
 21
      -26.24105
 31
        8.53398
 12
       44.29611
 22
      -26.24105
 32
        8.53398
 13
       44.29611
 23
      -25.02185
 33
        8.53398
999
ZONE3 BULK STORAGE:SKYLIGHT_R4C1
  0
3DFACE
  8
ZONE3_BULK_STORAGE
 62
143
 10
       34.44091
 20
      -25.02185
 30
        8.53398
 11
       34.44091
 21
      -26.24105
 31
        8.53398
 12
       35.66011
 22
      -26.24105
 32
        8.53398
 13
       35.66011
 23
      -25.02185
 33
        8.53398
999
ZONE3 BULK STORAGE:SKYLIGHT_R5C4
  0
3DFACE
  8
ZONE3_BULK_STORAGE
 62
143
 10
       60.34891
 20
      -19.44401
 30
        8.53398
 11
       60.34891
 21
      -20.66321
 31
        8.53398
 12
       61.56811
 22
      -20.66321
 32
        8.53398
 13
       61.56811
 23
      -19.44401
 33
        8.53398
999
ZONE3 BULK STORAGE:SKYLIGHT_R5C1
  0
3DFACE
  8
ZONE3_BULK_STORAGE
 62
143
 10
       34.44091
 20
      -19.44401
 30
        8.53398
 11
       34.44091
 21
      -20.66321
 31
        8.53398
 12
       35.66011
 22
      -20.66321
 32
        8.53398
 13
       35.66011
 23
      -19.44401
 33
        8.53398
999
ZONE3 BULK STORAGE:SKYLIGHT_R5C3
  0
3DFACE
  8
ZONE3_BULK_STORAGE
 62
143
 10
       51.71291
 20
      -19.44401
 30
        8.53398
 11
       51.71291
 21
      -20.66321
 31
        8.53398
 12
       52.93211
 22
      -20.66321
 32
        8.53398
 13
       52.93211
 23
      -19.44401
 33
        8.53398
999
ZONE3 BULK STORAGE:SKYLIGHT_R5C2
  0
3DFACE
  8
ZONE3_BULK_STORAGE
 62
143
 10
       43.07691
 20
      -19.44401
 30
        8.53398
 11
       43.07691
 21
      -20.66321
 31
        8.53398
 12
       44.29611
 22
      -20.66321
 32
        8.53398
 13
       44.29611
 23
      -19.44401
 33
        8.53398
999
ZONE3 BULK STORAGE:SKYLIGHT_R6C1
  0
3DFACE
  8
ZONE3_BULK_STORAGE
 62
143
 10
       34.44091
 20
      -13.86617
 30
        8.53398
 11
       34.44091
 21
      -15.08537
 31
        8.53398
 12
       35.66011
 22
      -15.08537
 32
        8.53398
 13
       35.66011
 23
      -13.86617
 33
        8.53398
999
ZONE3 BULK STORAGE:SKYLIGHT_R6C2
  0
3DFACE
  8
ZONE3_BULK_STORAGE
 62
143
 10
       43.07691
 20
      -13.86617
 30
        8.53398
 11
       43.07691
 21
      -15.08537
 31
        8.53398
 12
       44.29611
 22
      -15.08537
 32
        8.53398
 13
       44.29611
 23
      -13.86617
 33
        8.53398
999
ZONE3 BULK STORAGE:SKYLIGHT_R8C3
  0
3DFACE
  8
ZONE3_BULK_STORAGE
 62
143
 10
       51.71291
 20
       -2.71049
 30
        8.53398
 11
       51.71291
 21
       -3.92969
 31
        8.53398
 12
       52.93211
 22
       -3.92969
 32
        8.53398
 13
       52.93211
 23
       -2.71049
 33
        8.53398
999
ZONE3 BULK STORAGE:SKYLIGHT_R6C4
  0
3DFACE
  8
ZONE3_BULK_STORAGE
 62
143
 10
       60.34891
 20
      -13.86617
 30
        8.53398
 11
       60.34891
 21
      -15.08537
 31
        8.53398
 12
       61.56811
 22
      -15.08537
 32
        8.53398
 13
       61.56811
 23
      -13.86617
 33
        8.53398
999
ZONE3 BULK STORAGE:SKYLIGHT_R7C1
  0
3DFACE
  8
ZONE3_BULK_STORAGE
 62
143
 10
       34.44091
 20
       -8.28833
 30
        8.53398
 11
       34.44091
 21
       -9.50753
 31
        8.53398
 12
       35.66011
 22
       -9.50753
 32
        8.53398
 13
       35.66011
 23
       -8.28833
 33
        8.53398
999
ZONE3 BULK STORAGE:SKYLIGHT_R7C2
  0
3DFACE
  8
ZONE3_BULK_STORAGE
 62
143
 10
       43.07691
 20
       -8.28833
 30
        8.53398
 11
       43.07691
 21
       -9.50753
 31
        8.53398
 12
       44.29611
 22
       -9.50753
 32
        8.53398
 13
       44.29611
 23
       -8.28833
 33
        8.53398
999
ZONE3 BULK STORAGE:SKYLIGHT_R7C4
  0
3DFACE
  8
ZONE3_BULK_STORAGE
 62
143
 10
       60.34891
 20
       -8.28833
 30
        8.53398
 11
       60.34891
 21
       -9.50753
 31
        8.53398
 12
       61.56811
 22
       -9.50753
 32
        8.53398
 13
       61.56811
 23
       -8.28833
 33
        8.53398
999
ZONE3 BULK STORAGE:SKYLIGHT_R6C3
  0
3DFACE
  8
ZONE3_BULK_STORAGE
 62
143
 10
       51.71291
 20
      -13.86617
 30
        8.53398
 11
       51.71291
 21
      -15.08537
 31
        8.53398
 12
       52.93211
 22
      -15.08537
 32
        8.53398
 13
       52.93211
 23
      -13.86617
 33
        8.53398
999
ZONE3 BULK STORAGE:SKYLIGHT_R7C3
  0
3DFACE
  8
ZONE3_BULK_STORAGE
 62
143
 10
       51.71291
 20
       -8.28833
 30
        8.53398
 11
       51.71291
 21
       -9.50753
 31
        8.53398
 12
       52.93211
 22
       -9.50753
 32
        8.53398
 13
       52.93211
 23
       -8.28833
 33
        8.53398
999
ZONE1 OFFICE:DayRefPt:1
  0
CIRCLE
  8
ZONE1_OFFICE
 62
 10
 10
        4.57180
 20
       -3.26750
 30
        0.76200
 40
        0.20000
999
ZONE1 OFFICE:DayRefPt:2
  0
CIRCLE
  8
ZONE1_OFFICE
 62
  5
 10
        4.57180
 20
      -20.42160
 30
        0.76200
 40
        0.20000
999
ZONE2 FINE STORAGE:DayRefPt:1
  0
CIRCLE
  8
ZONE2_FINE_STORAGE
 62
 10
 10
       24.99360
 20
      -27.88920
 30
        0.76200
 40
        0.20000
999
ZONE2 FINE STORAGE:DayRefPt:2
  0
CIRCLE
  8
ZONE2_FINE_STORAGE
 62
  5
 10
       24.99360
 20
       -3.81000
 30
        0.76200
 40
        0.20000
999
ZONE3 BULK STORAGE:DayRefPt:1
  0
CIRCLE
  8
ZONE3_BULK_STORAGE
 62
 10
 10
       48.00000
 20
      -22.90000
 30
        0.00000
 40
        0.20000
999
ZONE3 BULK STORAGE:DayRefPt:2
  0
CIRCLE
  8
ZONE3_BULK_STORAGE
 62
  5
 10
       34.70000
 20
      -22.90000
 30
        0.00000
 40
        0.20000
999
ZONE1 OFFICE:DEDayRefPt:1
  0
CIRCLE
  8
ZONE1_OFFICE
 62
 10
 10
        4.57180
 20
       -3.26750
 30
        0.76200
 40
        0.20000
999
ZONE1 OFFICE:DEDayRefPt:2
  0
CIRCLE
  8
ZONE1_OFFICE
 62
  5
 10
        4.57180
 20
      -20.42160
 30
        0.76200
 40
        0.20000
999
ZONE2 FINE STORAGE:DEDayRefPt:1
  0
CIRCLE
  8
ZONE2_FINE_STORAGE
 62
 10
 10
       24.99360
 20
      -27.88920
 30
        0.76200
 40
        0.20000
999
ZONE2 FINE STORAGE:DEDayRefPt:2
  0
CIRCLE
  8
ZONE2_FINE_STORAGE
 62
  5
 10
       24.99360
 20
       -3.81000
 30
        0.76200
 40
        0.20000
999
ZONE3 BULK STORAGE:DEDayRefPt:1
  0
CIRCLE
  8
ZONE3_BULK_STORAGE
 62
 10
 10
       48.00000
 20
      -22.90000
 30
        0.00000
 40
        0.20000
999
ZONE3 BULK STORAGE:DEDayRefPt:2
  0
CIRCLE
  8
ZONE3_BULK_STORAGE
 62
  5
 10
       34.70000
 20
      -22.90000
 30
        0.00000
 40
        0.20000
  0
ENDSEC
  0
EOF
