Program Version,EnergyPlus, Version 9.2.0-921312fa1d, YMD=2021.11.29 17:16,
   ************* Beginning Zone Sizing Calculations
   ** Warning ** Site:GroundTemperature:BuildingSurface: Some values fall outside the range of 15-25C.
   **   ~~~   ** These values may be inappropriate.  Please consult the Input Output Reference for more details.
   ** Warning ** Weather file location will be used rather than entered (IDF) Location object.
   **   ~~~   ** ..Location object=XIAN_SHAANXI_CHN DESIGN_CONDITIONS
   **   ~~~   ** ..Weather File Location=San Francisco Intl Ap CA USA TMY3 WMO#=724940
   **   ~~~   ** ..due to location differences, Latitude difference=[3.32] degrees, Longitude difference=[231.33] degrees.
   **   ~~~   ** ..Time Zone difference=[16.0] hour(s), Elevation difference=[99.50] percent, [395.50] meters.
   ** Warning ** ProcessScheduleInput: Schedule:Compact="ALWAYS_OFF", Schedule Type Limits Name="ON/OFF" not found -- will not be validated
   ** Warning ** ProcessScheduleInput: Schedule:Compact="ALWAYS_ON", Schedule Type Limits Name="ON/OFF" not found -- will not be validated
   ** Warning ** CheckUsedConstructions: There are 123 nominally unused constructions in input.
   **   ~~~   ** For explicit details on each unused construction, use Output:Diagnostics,DisplayExtraWarnings;
   ** Warning ** GetDaylightingControls: Fraction of Zone controlled by the Daylighting reference points is < 1.0.
   **   ~~~   ** ..discovered in "Daylighting:Controls" for Zone="ZONE2 FINE STORAGE", only 0.50 of the zone is controlled.
   ** Warning ** GetDaylightingControls: Fraction of Zone controlled by the Daylighting reference points is < 1.0.
   **   ~~~   ** ..discovered in "Daylighting:Controls" for Zone="ZONE3 BULK STORAGE", only 0.50 of the zone is controlled.
   ** Warning ** GetDaylightingControls: Fraction of Zone controlled by the Daylighting reference points is < 1.0.
   **   ~~~   ** ..discovered in "Daylighting:Controls" for Zone="ZONE1 OFFICE", only 0.39 of the zone is controlled.
   ** Warning ** Calculated design cooling load for zone=ZONE3 BULK STORAGE is zero.
   **   ~~~   ** Check Sizing:Zone and ZoneControl:Thermostat inputs.
   ************* Beginning System Sizing Calculations
   ** Warning ** Calculated Relative Humidity out of range (PsyRhFnTdbWPb) 
   **   ~~~   **  Routine=Unknown, Environment=XIAN ANN CLG 2% CONDNS ENTH=>MDB, at Simulation time=07/21 24:00 - 24:15
   **   ~~~   **  Dry-Bulb= 9.99 Humidity Ratio= 8.003E-003 Calculated Relative Humidity [%]= 104.82
   **   ~~~   ** Relative Humidity being reset to 100.0%
   ** Warning ** Coil:Cooling:DX:TwoSpeed "PSZ-OFFICE COOLING COIL": At low speed rated air volume flow rate per watt of rated total cooling capacity is out of range.
   **   ~~~   ** Min Rated Vol Flow Per Watt=[4.027E-005], Rated Vol Flow Per Watt=[8.054E-005], Max Rated Vol Flow Per Watt=[6.041E-005]. See Input-Output Reference Manual for valid range.
   ** Warning ** CalcTwoSpeedDXCoilStandardRating: Did not find an appropriate fan associated with DX coil named = "PSZ-OFFICE COOLING COIL". Standard Ratings will not be calculated.
   ** Warning ** Coil:Cooling:DX:TwoSpeed "PSZ-FINE STORAGE COOLING COIL": At low speed rated air volume flow rate per watt of rated total cooling capacity is out of range.
   **   ~~~   ** Min Rated Vol Flow Per Watt=[4.027E-005], Rated Vol Flow Per Watt=[7.931E-005], Max Rated Vol Flow Per Watt=[6.041E-005]. See Input-Output Reference Manual for valid range.
   ** Warning ** CalcTwoSpeedDXCoilStandardRating: Did not find an appropriate fan associated with DX coil named = "PSZ-FINE STORAGE COOLING COIL". Standard Ratings will not be calculated.
   ** Warning ** Output:Meter:MeterFileOnly requested for "InteriorLights:Electricity" (Hourly), already on "Output:Meter". Will report to both eplusout.eso and eplusout.mtr
   ** Warning ** Output:Meter:MeterFileOnly requested for "InteriorEquipment:Electricity" (Hourly), already on "Output:Meter". Will report to both eplusout.eso and eplusout.mtr
   ************* Testing Individual Branch Integrity
   ************* All Branches passed integrity testing
   ************* Testing Individual Supply Air Path Integrity
   ************* All Supply Air Paths passed integrity testing
   ************* Testing Individual Return Air Path Integrity
   ************* All Return Air Paths passed integrity testing
   ************* No node connection errors were found.
   ************* Beginning Simulation
   ** Warning ** checkForUnusedActuatorsAtEnd: Unused EMS Actuator detected, suggesting possible unintended programming error or spelling mistake.
   **   ~~~   ** Check Erl programs related to EMS actuator variable name = PSZ_OFFICE_FAN_PRESSURE
   **   ~~~   ** EMS Actuator type name = FAN
   **   ~~~   ** EMS Actuator unique component name = PSZ-OFFICE SUPPLY FAN
   **   ~~~   ** EMS Actuator control type = FAN PRESSURE RISE
   ** Warning ** checkForUnusedActuatorsAtEnd: Unused EMS Actuator detected, suggesting possible unintended programming error or spelling mistake.
   **   ~~~   ** Check Erl programs related to EMS actuator variable name = PSZ_FINE_FAN_PRESSURE
   **   ~~~   ** EMS Actuator type name = FAN
   **   ~~~   ** EMS Actuator unique component name = PSZ-FINE STORAGE SUPPLY FAN
   **   ~~~   ** EMS Actuator control type = FAN PRESSURE RISE
   ************* Simulation Error Summary *************
   ************* There are 20 unused schedules in input.
   ************* There are 8 unused week schedules in input.
   ************* There are 15 unused day schedules in input.
   ************* Use Output:Diagnostics,DisplayUnusedSchedules; to see them.
   *************
   ************* ===== Recurring Error Summary =====
   ************* The following recurring error messages occurred.
   *************
   *************  ** Warning ** Calculated Relative Humidity out of range (PsyRhFnTdbWPb)
   *************  **   ~~~   **   This error occurred 1 total times;
   *************  **   ~~~   **   during Warmup 0 times;
   *************  **   ~~~   **   during Sizing 0 times.
   *************  **   ~~~   **   Max=104.82303 %  Min=104.82303 %
   *************
   *************
   ************* ===== Final Error Summary =====
   ************* The following error categories occurred.  Consider correcting or noting.
   ************* Nominally Unused Constructions
   ************* ..The nominally unused constructions warning is provided to alert you to potential conditions that can cause
   ************* ..extra time during simulation. Each construction is calculated by the algorithm indicated in the HeatBalanceAlgorithm
   ************* ..object. You may remove the constructions indicated (when you use the DisplayExtraWarnings option).
   *************
   ************* EnergyPlus Warmup Error Summary. During Warmup: 0 Warning; 0 Severe Errors.
   ************* EnergyPlus Sizing Error Summary. During Sizing: 9 Warning; 0 Severe Errors.
   ************* EnergyPlus Completed Successfully-- 18 Warning; 0 Severe Errors; Elapsed Time=00hr 00min 31.70sec
