Program Version,EnergyPlus, Version 9.2.0-921312fa1d, YMD=2022.02.15 15:55
! <Version>, Version ID
 Version, 9.2
! <Timesteps per Hour>, #TimeSteps, Minutes per TimeStep {minutes}
 Timesteps per Hour,  4, 15
! <System Convergence Limits>, Minimum System TimeStep {minutes}, Max HVAC Iterations, Minimum Plant Iterations, Maximum Plant Iterations
 System Convergence Limits, 1, 20, 2, 8
! <Simulation Control>, Do Zone Sizing, Do System Sizing, Do Plant Sizing, Do Design Days, Do Weather Simulation, Do HVAC Sizing Simulation
 Simulation Control, Yes, Yes, Yes, Yes, Yes, No
! <Output Reporting Tolerances>, Tolerance for Time Heating Setpoint Not Met, Tolerance for Zone Cooling Setpoint Not Met Time
 Output Reporting Tolerances, 0.200, 0.200, 
! <Site:GroundTemperature:BuildingSurface>,Jan{C},Feb{C},Mar{C},Apr{C},May{C},Jun{C},Jul{C},Aug{C},Sep{C},Oct{C},Nov{C},Dec{C}
 Site:GroundTemperature:BuildingSurface,  20.53,  20.49,  20.52,  20.53,  20.60,  22.84,  23.26,  23.35,  23.38,  21.14,  20.76,  20.61
! <Site:GroundTemperature:FCfactorMethod>,Jan{C},Feb{C},Mar{C},Apr{C},May{C},Jun{C},Jul{C},Aug{C},Sep{C},Oct{C},Nov{C},Dec{C}
 Site:GroundTemperature:FCfactorMethod,  18.37,  16.07,  15.44,  15.99,  19.10,  22.58,  25.85,  28.23,  28.92,  27.80,  25.12,  21.74
! <Site:GroundTemperature:Shallow>,Jan{C},Feb{C},Mar{C},Apr{C},May{C},Jun{C},Jul{C},Aug{C},Sep{C},Oct{C},Nov{C},Dec{C}
 Site:GroundTemperature:Shallow,  13.00,  13.00,  13.00,  13.00,  13.00,  13.00,  13.00,  13.00,  13.00,  13.00,  13.00,  13.00
! <Site:GroundTemperature:Deep>,Jan{C},Feb{C},Mar{C},Apr{C},May{C},Jun{C},Jul{C},Aug{C},Sep{C},Oct{C},Nov{C},Dec{C}
 Site:GroundTemperature:Deep,  16.00,  16.00,  16.00,  16.00,  16.00,  16.00,  16.00,  16.00,  16.00,  16.00,  16.00,  16.00
! <Site:GroundReflectance>,Jan{dimensionless},Feb{dimensionless},Mar{dimensionless},Apr{dimensionless},May{dimensionless},Jun{dimensionless},Jul{dimensionless},Aug{dimensionless},Sep{dimensionless},Oct{dimensionless},Nov{dimensionless},Dec{dimensionless}
 Site:GroundReflectance,  0.20,  0.20,  0.20,  0.20,  0.20,  0.20,  0.20,  0.20,  0.20,  0.20,  0.20,  0.20
! <Site:GroundReflectance:SnowModifier>, Normal, Daylighting {dimensionless}
 Site:GroundReflectance:SnowModifier,   1.000,   1.000
! <Site:GroundReflectance:Snow>,Jan{dimensionless},Feb{dimensionless},Mar{dimensionless},Apr{dimensionless},May{dimensionless},Jun{dimensionless},Jul{dimensionless},Aug{dimensionless},Sep{dimensionless},Oct{dimensionless},Nov{dimensionless},Dec{dimensionless}
 Site:GroundReflectance:Snow,  0.20,  0.20,  0.20,  0.20,  0.20,  0.20,  0.20,  0.20,  0.20,  0.20,  0.20,  0.20
! <Site:GroundReflectance:Snow:Daylighting>,Jan{dimensionless},Feb{dimensionless},Mar{dimensionless},Apr{dimensionless},May{dimensionless},Jun{dimensionless},Jul{dimensionless},Aug{dimensionless},Sep{dimensionless},Oct{dimensionless},Nov{dimensionless},Dec{dimensionless}
 Site:GroundReflectance:Snow:Daylighting,  0.20,  0.20,  0.20,  0.20,  0.20,  0.20,  0.20,  0.20,  0.20,  0.20,  0.20,  0.20
! <Environment:Weather Station>,Wind Sensor Height Above Ground {m},Wind Speed Profile Exponent {},Wind Speed Profile Boundary Layer Thickness {m},Air Temperature Sensor Height Above Ground {m},Wind Speed Modifier Coefficient-Internal,Temperature Modifier Coefficient-Internal
Environment:Weather Station,10.000,0.140,270.000,1.500,1.586,9.750E-003
! <Site:Location>, Location Name, Latitude {N+/S- Deg}, Longitude {E+/W- Deg},  Time Zone Number {GMT+/-}, Elevation {m},  Standard Pressure at Elevation {Pa}, Standard RhoAir at Elevation
Site:Location,Guangzhou Guangdong CHN CSWD WMO#=592870,23.17,113.33,8.00,41.00,100833,1.1985
! <Site Water Mains Temperature Information>,Calculation Method{},Water Mains Temperature Schedule Name{},Annual Average Outdoor Air Temperature{C},Maximum Difference In Monthly Average Outdoor Air Temperatures{deltaC},Fixed Default Water Mains Temperature{C}
Site Water Mains Temperature Information,Correlation,NA,9.95,23.70,NA
! <Building Information>, Building Name,North Axis {deg},Terrain,  Loads Convergence Tolerance Value,Temperature Convergence Tolerance Value,  Solar Distribution,Maximum Number of Warmup Days,Minimum Number of Warmup Days
 Building Information,Medium Office,0.000,City,4.00000E-002,0.20000,FullInteriorAndExterior,25,6
! <Inside Convection Algorithm>, Algorithm {Simple | TARP | CeilingDiffuser | AdaptiveConvectionAlgorithm}
Inside Convection Algorithm,TARP
! <Outside Convection Algorithm>, Algorithm {SimpleCombined | TARP | MoWitt | DOE-2 | AdaptiveConvectionAlgorithm}
Outside Convection Algorithm,TARP
! <Sky Radiance Distribution>, Value {Anisotropic}
Sky Radiance Distribution,Anisotropic
! <Zone Air Solution Algorithm>, Value {ThirdOrderBackwardDifference | AnalyticalSolution | EulerMethod}
 Zone Air Solution Algorithm, ThirdOrderBackwardDifference
! <Zone Air Carbon Dioxide Balance Simulation>, Simulation {Yes/No}, Carbon Dioxide Concentration
 Zone Air Carbon Dioxide Balance Simulation, No,N/A
! <Zone Air Generic Contaminant Balance Simulation>, Simulation {Yes/No}, Generic Contaminant Concentration
 Zone Air Generic Contaminant Balance Simulation, No,N/A
! <Zone Air Mass Flow Balance Simulation>, Enforce Mass Balance, Adjust Zone Mixing, Adjust Zone Infiltration {AddInfiltration | AdjustInfiltration | None}, Infiltration Zones {MixingSourceZonesOnly | AllZones}
 Zone Air Mass Flow Balance Simulation, No,N/A,N/A,N/A
! <HVACSystemRootFindingAlgorithm>, Value {RegulaFalsi | Bisection | BisectionThenRegulaFalsi | RegulaFalsiThenBisection}
 HVACSystemRootFindingAlgorithm, RegulaFalsi
! <Environment:Site Atmospheric Variation>,Wind Speed Profile Exponent {},Wind Speed Profile Boundary Layer Thickness {m},Air Temperature Gradient Coefficient {K/m}
Environment:Site Atmospheric Variation,0.330,460.000,6.500000E-003
! <Surface Geometry>,Starting Corner,Vertex Input Direction,Coordinate System,Daylight Reference Point Coordinate System,Rectangular (Simple) Surface Coordinate System
 Surface Geometry,UpperLeftCorner,Counterclockwise,RelativeCoordinateSystem,RelativeCoordinateSystem,RelativeToZoneOrigin
! <Surface Heat Transfer Algorithm>, Value {CTF - ConductionTransferFunction | EMPD - MoisturePenetrationDepthConductionTransferFunction | CondFD - ConductionFiniteDifference | HAMT - CombinedHeatAndMoistureFiniteElement} - Description,Inside Surface Max Temperature Limit{C}, Surface Convection Coefficient Lower Limit {W/m2-K}, Surface Convection Coefficient Upper Limit {W/m2-K}
Surface Heat Transfer Algorithm, CTF - ConductionTransferFunction,200,0.10,1000.0
! <Shading Summary>, Number of Fixed Detached Shades, Number of Building Detached Shades, Number of Attached Shades
 Shading Summary,0,0,0
! <Zone Summary>, Number of Zones, Number of Zone Surfaces, Number of SubSurfaces
 Zone Summary,18,167,24
! <Zone Information>,Zone Name,North Axis {deg},Origin X-Coordinate {m},Origin Y-Coordinate {m},Origin Z-Coordinate {m},Centroid X-Coordinate {m},Centroid Y-Coordinate {m},Centroid Z-Coordinate {m},Type,Zone Multiplier,Zone List Multiplier,Minimum X {m},Maximum X {m},Minimum Y {m},Maximum Y {m},Minimum Z {m},Maximum Z {m},Ceiling Height {m},Volume {m3},Zone Inside Convection Algorithm {Simple-Detailed-CeilingDiffuser-TrombeWall},Zone Outside Convection Algorithm {Simple-Detailed-Tarp-MoWitt-DOE-2-BLAST}, Floor Area {m2},Exterior Gross Wall Area {m2},Exterior Net Wall Area {m2},Exterior Window Area {m2}, Number of Surfaces, Number of SubSurfaces, Number of Shading SubSurfaces,  Part of Total Building Area
 Zone Information, CORE_BOTTOM,0.0,0.00,0.00,0.00,24.96,16.64,1.37,1,1,1,4.57,45.34,4.57,28.70,0.00,2.74,2.74,2698.04,TARP,TARP,983.54,0.00,0.00,0.00,6,0,0,Yes
 Zone Information, TOPFLOOR_PLENUM,0.0,0.00,0.00,0.00,24.96,16.64,11.28,1,1,1,0.00,49.91,0.00,33.27,10.67,11.89,1.22,2024.76,TARP,TARP,1660.73,202.84,202.84,0.00,10,0,0,No
 Zone Information, MIDFLOOR_PLENUM,0.0,0.00,0.00,0.00,24.96,16.64,7.32,1,1,1,0.00,49.91,0.00,33.27,6.71,7.92,1.22,2024.76,TARP,TARP,1660.73,202.84,202.84,0.00,14,0,0,No
 Zone Information, FIRSTFLOOR_PLENUM,0.0,0.00,0.00,0.00,24.96,16.64,3.35,1,1,1,0.00,49.91,0.00,33.27,2.74,3.96,1.22,2024.76,TARP,TARP,1660.73,202.84,202.84,0.00,14,0,0,No
 Zone Information, CORE_MID,0.0,0.00,0.00,0.00,24.96,16.64,5.33,1,1,1,4.57,45.34,4.57,28.70,3.96,6.71,2.74,2698.04,TARP,TARP,983.54,0.00,0.00,0.00,6,0,0,Yes
 Zone Information, CORE_TOP,0.0,0.00,0.00,0.00,24.96,16.64,9.30,1,1,1,4.57,45.34,4.57,28.70,7.92,10.67,2.74,2698.04,TARP,TARP,983.54,0.00,0.00,0.00,6,0,0,Yes
 Zone Information, PERIMETER_TOP_ZN_3,0.0,0.00,0.00,0.00,24.96,31.11,9.30,1,1,1,0.00,49.91,28.70,33.27,7.92,10.67,2.74,568.77,TARP,TARP,207.34,136.92,71.65,65.26,6,1,0,Yes
 Zone Information, PERIMETER_TOP_ZN_2,0.0,0.00,0.00,0.00,47.82,16.64,9.30,1,1,1,45.34,49.91,0.00,33.27,7.92,10.67,2.74,360.08,TARP,TARP,131.26,91.28,47.77,43.51,6,1,0,Yes
 Zone Information, PERIMETER_TOP_ZN_1,0.0,0.00,0.00,0.00,24.96,2.16,9.30,1,1,1,0.00,49.91,0.00,4.57,7.92,10.67,2.74,568.77,TARP,TARP,207.34,136.92,71.65,65.26,6,1,0,Yes
 Zone Information, PERIMETER_TOP_ZN_4,0.0,0.00,0.00,0.00,2.09,16.64,9.30,1,1,1,0.00,4.57,0.00,33.27,7.92,10.67,2.74,360.05,TARP,TARP,131.25,91.28,47.77,43.51,6,1,0,Yes
 Zone Information, PERIMETER_BOT_ZN_3,0.0,0.00,0.00,0.00,24.96,31.11,1.37,1,1,1,0.00,49.91,28.70,33.27,0.00,2.74,2.74,568.77,TARP,TARP,207.34,136.92,67.76,65.26,6,5,0,Yes
 Zone Information, PERIMETER_BOT_ZN_2,0.0,0.00,0.00,0.00,47.82,16.64,1.37,1,1,1,45.34,49.91,0.00,33.27,0.00,2.74,2.74,360.08,TARP,TARP,131.26,91.28,45.82,43.51,6,3,0,Yes
 Zone Information, PERIMETER_BOT_ZN_1,0.0,0.00,0.00,0.00,24.96,2.16,1.37,1,1,1,0.00,49.91,0.00,4.57,0.00,2.74,2.74,568.77,TARP,TARP,207.34,136.92,67.76,65.26,6,5,0,Yes
 Zone Information, PERIMETER_BOT_ZN_4,0.0,0.00,0.00,0.00,2.09,16.64,1.37,1,1,1,0.00,4.57,0.00,33.27,0.00,2.74,2.74,360.05,TARP,TARP,131.25,91.28,45.82,43.51,6,3,0,Yes
 Zone Information, PERIMETER_MID_ZN_3,0.0,0.00,0.00,0.00,24.96,31.11,5.33,1,1,1,0.00,49.91,28.70,33.27,3.96,6.71,2.74,568.77,TARP,TARP,207.34,136.92,71.65,65.26,6,1,0,Yes
 Zone Information, PERIMETER_MID_ZN_2,0.0,0.00,0.00,0.00,47.82,16.64,5.33,1,1,1,45.34,49.91,0.00,33.27,3.96,6.71,2.74,360.08,TARP,TARP,131.26,91.28,47.77,43.51,6,1,0,Yes
 Zone Information, PERIMETER_MID_ZN_1,0.0,0.00,0.00,0.00,24.96,2.16,5.33,1,1,1,0.00,49.91,0.00,4.57,3.96,6.71,2.74,568.77,TARP,TARP,207.34,136.92,71.65,65.26,6,1,0,Yes
 Zone Information, PERIMETER_MID_ZN_4,0.0,0.00,0.00,0.00,2.09,16.64,5.33,1,1,1,0.00,4.57,0.00,33.27,3.96,6.71,2.74,360.05,TARP,TARP,131.25,91.28,47.77,43.51,6,1,0,Yes
! <Zone Internal Gains Nominal>,Zone Name, Floor Area {m2},# Occupants,Area per Occupant {m2/person},Occupant per Area {person/m2},Interior Lighting {W/m2},Electric Load {W/m2},Gas Load {W/m2},Other Load {W/m2},Hot Water Eq {W/m2},Steam Equipment {W/m2},Sum Loads per Area {W/m2},Outdoor Controlled Baseboard Heat
 Zone Internal Gains Nominal, CORE_BOTTOM,983.54,52.9,18.579,5.382E-002,8.503,40.844,0.000,0.000,0.000,0.000,49.348,No
 Zone Internal Gains Nominal, TOPFLOOR_PLENUM,1660.73,0.0,N/A,0.000,0.000,0.000,0.000,0.000,0.000,0.000,0.000,No
 Zone Internal Gains Nominal, MIDFLOOR_PLENUM,1660.73,0.0,N/A,0.000,0.000,0.000,0.000,0.000,0.000,0.000,0.000,No
 Zone Internal Gains Nominal, FIRSTFLOOR_PLENUM,1660.73,0.0,N/A,0.000,0.000,0.000,0.000,0.000,0.000,0.000,0.000,No
 Zone Internal Gains Nominal, CORE_MID,983.54,52.9,18.579,5.382E-002,8.503,8.070,0.000,0.000,0.000,0.000,16.574,No
 Zone Internal Gains Nominal, CORE_TOP,983.54,52.9,18.579,5.382E-002,8.503,8.070,0.000,0.000,0.000,0.000,16.574,No
 Zone Internal Gains Nominal, PERIMETER_TOP_ZN_3,207.34,11.2,18.579,5.382E-002,8.503,8.070,0.000,0.000,0.000,0.000,16.573,No
 Zone Internal Gains Nominal, PERIMETER_TOP_ZN_2,131.26,7.1,18.579,5.382E-002,8.503,8.069,0.000,0.000,0.000,0.000,16.573,No
 Zone Internal Gains Nominal, PERIMETER_TOP_ZN_1,207.34,11.2,18.579,5.382E-002,8.503,8.070,0.000,0.000,0.000,0.000,16.573,No
 Zone Internal Gains Nominal, PERIMETER_TOP_ZN_4,131.25,7.1,18.579,5.382E-002,8.503,8.070,0.000,0.000,0.000,0.000,16.573,No
 Zone Internal Gains Nominal, PERIMETER_BOT_ZN_3,207.34,11.2,18.579,5.382E-002,8.503,8.070,0.000,0.000,0.000,0.000,16.573,No
 Zone Internal Gains Nominal, PERIMETER_BOT_ZN_2,131.26,7.1,18.579,5.382E-002,8.503,8.069,0.000,0.000,0.000,0.000,16.573,No
 Zone Internal Gains Nominal, PERIMETER_BOT_ZN_1,207.34,11.2,18.579,5.382E-002,8.503,8.070,0.000,0.000,0.000,0.000,16.573,No
 Zone Internal Gains Nominal, PERIMETER_BOT_ZN_4,131.25,7.1,18.579,5.382E-002,8.503,8.070,0.000,0.000,0.000,0.000,16.573,No
 Zone Internal Gains Nominal, PERIMETER_MID_ZN_3,207.34,11.2,18.579,5.382E-002,8.503,8.070,0.000,0.000,0.000,0.000,16.573,No
 Zone Internal Gains Nominal, PERIMETER_MID_ZN_2,131.26,7.1,18.579,5.382E-002,8.503,8.069,0.000,0.000,0.000,0.000,16.573,No
 Zone Internal Gains Nominal, PERIMETER_MID_ZN_1,207.34,11.2,18.579,5.382E-002,8.503,8.070,0.000,0.000,0.000,0.000,16.573,No
 Zone Internal Gains Nominal, PERIMETER_MID_ZN_4,131.25,7.1,18.579,5.382E-002,8.503,8.070,0.000,0.000,0.000,0.000,16.573,No
! <People Internal Gains Nominal>,Name,Schedule Name,Zone Name,Zone Floor Area {m2},# Zone Occupants,Number of People {},People/Floor Area {person/m2},Floor Area per person {m2/person},Fraction Radiant,Fraction Convected,Sensible Fraction Calculation,Activity level,ASHRAE 55 Warnings,Carbon Dioxide Generation Rate,Nominal Minimum Number of People,Nominal Maximum Number of People,MRT Calculation Type,Work Efficiency, Clothing Insulation Calculation Method,Clothing Insulation Calculation Method Schedule,Clothing,Air Velocity,Fanger Calculation,Pierce Calculation,KSU Calculation
 People Internal Gains Nominal, CORE_BOTTOM,BLDG_OCC_SCH,CORE_BOTTOM,983.54,52.9,52.9,5.382E-002,18.579,0.300,0.700,AutoCalculate,ACTIVITY_SCH,No,3.8200E-008,0,53,Zone Averaged,WORK_EFF_SCH,Clothing Insulation Schedule,N/A,CLOTHING_SCH,AIR_VELO_SCH,Yes,No,No
 People Internal Gains Nominal, CORE_MID,BLDG_OCC_SCH,CORE_MID,983.54,52.9,52.9,5.382E-002,18.579,0.300,0.700,AutoCalculate,ACTIVITY_SCH,No,3.8200E-008,0,53,Zone Averaged,WORK_EFF_SCH,Clothing Insulation Schedule,N/A,CLOTHING_SCH,AIR_VELO_SCH,Yes,No,No
 People Internal Gains Nominal, CORE_TOP,BLDG_OCC_SCH,CORE_TOP,983.54,52.9,52.9,5.382E-002,18.579,0.300,0.700,AutoCalculate,ACTIVITY_SCH,No,3.8200E-008,0,53,Zone Averaged,WORK_EFF_SCH,Clothing Insulation Schedule,N/A,CLOTHING_SCH,AIR_VELO_SCH,Yes,No,No
 People Internal Gains Nominal, PERIMETER_TOP_ZN_3,BLDG_OCC_SCH,PERIMETER_TOP_ZN_3,207.34,11.2,11.2,5.382E-002,18.579,0.300,0.700,AutoCalculate,ACTIVITY_SCH,No,3.8200E-008,0,11,Zone Averaged,WORK_EFF_SCH,Clothing Insulation Schedule,N/A,CLOTHING_SCH,AIR_VELO_SCH,Yes,No,No
 People Internal Gains Nominal, PERIMETER_TOP_ZN_2,BLDG_OCC_SCH,PERIMETER_TOP_ZN_2,131.26,7.1,7.1,5.382E-002,18.579,0.300,0.700,AutoCalculate,ACTIVITY_SCH,No,3.8200E-008,0,7,Zone Averaged,WORK_EFF_SCH,Clothing Insulation Schedule,N/A,CLOTHING_SCH,AIR_VELO_SCH,Yes,No,No
 People Internal Gains Nominal, PERIMETER_TOP_ZN_1,BLDG_OCC_SCH,PERIMETER_TOP_ZN_1,207.34,11.2,11.2,5.382E-002,18.579,0.300,0.700,AutoCalculate,ACTIVITY_SCH,No,3.8200E-008,0,11,Zone Averaged,WORK_EFF_SCH,Clothing Insulation Schedule,N/A,CLOTHING_SCH,AIR_VELO_SCH,Yes,No,No
 People Internal Gains Nominal, PERIMETER_TOP_ZN_4,BLDG_OCC_SCH,PERIMETER_TOP_ZN_4,131.25,7.1,7.1,5.382E-002,18.579,0.300,0.700,AutoCalculate,ACTIVITY_SCH,No,3.8200E-008,0,7,Zone Averaged,WORK_EFF_SCH,Clothing Insulation Schedule,N/A,CLOTHING_SCH,AIR_VELO_SCH,Yes,No,No
 People Internal Gains Nominal, PERIMETER_BOT_ZN_3,BLDG_OCC_SCH,PERIMETER_BOT_ZN_3,207.34,11.2,11.2,5.382E-002,18.579,0.300,0.700,AutoCalculate,ACTIVITY_SCH,No,3.8200E-008,0,11,Zone Averaged,WORK_EFF_SCH,Clothing Insulation Schedule,N/A,CLOTHING_SCH,AIR_VELO_SCH,Yes,No,No
 People Internal Gains Nominal, PERIMETER_BOT_ZN_2,BLDG_OCC_SCH,PERIMETER_BOT_ZN_2,131.26,7.1,7.1,5.382E-002,18.579,0.300,0.700,AutoCalculate,ACTIVITY_SCH,No,3.8200E-008,0,7,Zone Averaged,WORK_EFF_SCH,Clothing Insulation Schedule,N/A,CLOTHING_SCH,AIR_VELO_SCH,Yes,No,No
 People Internal Gains Nominal, PERIMETER_BOT_ZN_1,BLDG_OCC_SCH,PERIMETER_BOT_ZN_1,207.34,11.2,11.2,5.382E-002,18.579,0.300,0.700,AutoCalculate,ACTIVITY_SCH,No,3.8200E-008,0,11,Zone Averaged,WORK_EFF_SCH,Clothing Insulation Schedule,N/A,CLOTHING_SCH,AIR_VELO_SCH,Yes,No,No
 People Internal Gains Nominal, PERIMETER_BOT_ZN_4,BLDG_OCC_SCH,PERIMETER_BOT_ZN_4,131.25,7.1,7.1,5.382E-002,18.579,0.300,0.700,AutoCalculate,ACTIVITY_SCH,No,3.8200E-008,0,7,Zone Averaged,WORK_EFF_SCH,Clothing Insulation Schedule,N/A,CLOTHING_SCH,AIR_VELO_SCH,Yes,No,No
 People Internal Gains Nominal, PERIMETER_MID_ZN_3,BLDG_OCC_SCH,PERIMETER_MID_ZN_3,207.34,11.2,11.2,5.382E-002,18.579,0.300,0.700,AutoCalculate,ACTIVITY_SCH,No,3.8200E-008,0,11,Zone Averaged,WORK_EFF_SCH,Clothing Insulation Schedule,N/A,CLOTHING_SCH,AIR_VELO_SCH,Yes,No,No
 People Internal Gains Nominal, PERIMETER_MID_ZN_2,BLDG_OCC_SCH,PERIMETER_MID_ZN_2,131.26,7.1,7.1,5.382E-002,18.579,0.300,0.700,AutoCalculate,ACTIVITY_SCH,No,3.8200E-008,0,7,Zone Averaged,WORK_EFF_SCH,Clothing Insulation Schedule,N/A,CLOTHING_SCH,AIR_VELO_SCH,Yes,No,No
 People Internal Gains Nominal, PERIMETER_MID_ZN_1,BLDG_OCC_SCH,PERIMETER_MID_ZN_1,207.34,11.2,11.2,5.382E-002,18.579,0.300,0.700,AutoCalculate,ACTIVITY_SCH,No,3.8200E-008,0,11,Zone Averaged,WORK_EFF_SCH,Clothing Insulation Schedule,N/A,CLOTHING_SCH,AIR_VELO_SCH,Yes,No,No
 People Internal Gains Nominal, PERIMETER_MID_ZN_4,BLDG_OCC_SCH,PERIMETER_MID_ZN_4,131.25,7.1,7.1,5.382E-002,18.579,0.300,0.700,AutoCalculate,ACTIVITY_SCH,No,3.8200E-008,0,7,Zone Averaged,WORK_EFF_SCH,Clothing Insulation Schedule,N/A,CLOTHING_SCH,AIR_VELO_SCH,Yes,No,No
! <Lights Internal Gains Nominal>,Name,Schedule Name,Zone Name,Zone Floor Area {m2},# Zone Occupants,Lighting Level {W},Lights/Floor Area {W/m2},Lights per person {W/person},Fraction Return Air,Fraction Radiant,Fraction Short Wave,Fraction Convected,Fraction Replaceable,End-Use Category,Nominal Minimum Lighting Level {W},Nominal Maximum Lighting Level {W}
 Lights Internal Gains Nominal, CORE_BOTTOM_LIGHTS,BLDG_LIGHT_SCH,CORE_BOTTOM,983.54,52.9,8363.493,8.503,157.985,0.000,0.700,0.200,0.100,1.000,General Lights,0.000,8363.493
 Lights Internal Gains Nominal, CORE_MID_LIGHTS,BLDG_LIGHT_SCH,CORE_MID,983.54,52.9,8363.493,8.503,157.985,0.000,0.700,0.200,0.100,1.000,General Lights,0.000,8363.493
 Lights Internal Gains Nominal, CORE_TOP_LIGHTS,BLDG_LIGHT_SCH,CORE_TOP,983.54,52.9,8363.493,8.503,157.985,0.000,0.700,0.200,0.100,1.000,General Lights,0.000,8363.493
 Lights Internal Gains Nominal, PERIMETER_TOP_ZN_3_LIGHTS,BLDG_LIGHT_SCH,PERIMETER_TOP_ZN_3,207.34,11.2,1763.098,8.503,157.985,0.000,0.700,0.200,0.100,1.000,General Lights,0.000,1763.098
 Lights Internal Gains Nominal, PERIMETER_TOP_ZN_2_LIGHTS,BLDG_LIGHT_SCH,PERIMETER_TOP_ZN_2,131.26,7.1,1116.187,8.503,157.985,0.000,0.700,0.200,0.100,1.000,General Lights,0.000,1116.187
 Lights Internal Gains Nominal, PERIMETER_TOP_ZN_1_LIGHTS,BLDG_LIGHT_SCH,PERIMETER_TOP_ZN_1,207.34,11.2,1763.098,8.503,157.985,0.000,0.700,0.200,0.100,1.000,General Lights,0.000,1763.098
 Lights Internal Gains Nominal, PERIMETER_TOP_ZN_4_LIGHTS,BLDG_LIGHT_SCH,PERIMETER_TOP_ZN_4,131.25,7.1,1116.113,8.503,157.985,0.000,0.700,0.200,0.100,1.000,General Lights,0.000,1116.113
 Lights Internal Gains Nominal, PERIMETER_BOT_ZN_3_LIGHTS,BLDG_LIGHT_SCH,PERIMETER_BOT_ZN_3,207.34,11.2,1763.098,8.503,157.985,0.000,0.700,0.200,0.100,1.000,General Lights,0.000,1763.098
 Lights Internal Gains Nominal, PERIMETER_BOT_ZN_2_LIGHTS,BLDG_LIGHT_SCH,PERIMETER_BOT_ZN_2,131.26,7.1,1116.187,8.503,157.985,0.000,0.700,0.200,0.100,1.000,General Lights,0.000,1116.187
 Lights Internal Gains Nominal, PERIMETER_BOT_ZN_1_LIGHTS,BLDG_LIGHT_SCH,PERIMETER_BOT_ZN_1,207.34,11.2,1763.098,8.503,157.985,0.000,0.700,0.200,0.100,1.000,General Lights,0.000,1763.098
 Lights Internal Gains Nominal, PERIMETER_BOT_ZN_4_LIGHTS,BLDG_LIGHT_SCH,PERIMETER_BOT_ZN_4,131.25,7.1,1116.113,8.503,157.985,0.000,0.700,0.200,0.100,1.000,General Lights,0.000,1116.113
 Lights Internal Gains Nominal, PERIMETER_MID_ZN_3_LIGHTS,BLDG_LIGHT_SCH,PERIMETER_MID_ZN_3,207.34,11.2,1763.098,8.503,157.985,0.000,0.700,0.200,0.100,1.000,General Lights,0.000,1763.098
 Lights Internal Gains Nominal, PERIMETER_MID_ZN_2_LIGHTS,BLDG_LIGHT_SCH,PERIMETER_MID_ZN_2,131.26,7.1,1116.187,8.503,157.985,0.000,0.700,0.200,0.100,1.000,General Lights,0.000,1116.187
 Lights Internal Gains Nominal, PERIMETER_MID_ZN_1_LIGHTS,BLDG_LIGHT_SCH,PERIMETER_MID_ZN_1,207.34,11.2,1763.098,8.503,157.985,0.000,0.700,0.200,0.100,1.000,General Lights,0.000,1763.098
 Lights Internal Gains Nominal, PERIMETER_MID_ZN_4_LIGHTS,BLDG_LIGHT_SCH,PERIMETER_MID_ZN_4,131.25,7.1,1116.113,8.503,157.985,0.000,0.700,0.200,0.100,1.000,General Lights,0.000,1116.113
! <ElectricEquipment Internal Gains Nominal>,Name,Schedule Name,Zone Name,Zone Floor Area {m2},# Zone Occupants,Equipment Level {W},Equipment/Floor Area {W/m2},Equipment per person {W/person},Fraction Latent,Fraction Radiant,Fraction Lost,Fraction Convected,End-Use SubCategory,Nominal Minimum Equipment Level {W},Nominal Maximum Equipment Level {W}
 ElectricEquipment Internal Gains Nominal, CORE_BOTTOM_MISCPLUG_EQUIP,BLDG_EQUIP_SCH,CORE_BOTTOM,983.54,52.9,7937.156,8.070,149.931,0.000,0.500,0.000,0.500,MiscPlug,0.000,7937.156
 ElectricEquipment Internal Gains Nominal, CORE_MID_MISCPLUG_EQUIP,BLDG_EQUIP_SCH,CORE_MID,983.54,52.9,7937.156,8.070,149.931,0.000,0.500,0.000,0.500,MiscPlug,0.000,7937.156
 ElectricEquipment Internal Gains Nominal, CORE_TOP_MISCPLUG_EQUIP,BLDG_EQUIP_SCH,CORE_TOP,983.54,52.9,7937.156,8.070,149.931,0.000,0.500,0.000,0.500,MiscPlug,0.000,7937.156
 ElectricEquipment Internal Gains Nominal, PERIMETER_TOP_ZN_3_MISCPLUG_EQUIP,BLDG_EQUIP_SCH,PERIMETER_TOP_ZN_3,207.34,11.2,1673.214,8.070,149.930,0.000,0.500,0.000,0.500,MiscPlug,0.000,1673.214
 ElectricEquipment Internal Gains Nominal, PERIMETER_TOP_ZN_2_MISCPLUG_EQUIP,BLDG_EQUIP_SCH,PERIMETER_TOP_ZN_2,131.26,7.1,1059.217,8.069,149.921,0.000,0.500,0.000,0.500,MiscPlug,0.000,1059.217
 ElectricEquipment Internal Gains Nominal, PERIMETER_TOP_ZN_1_MISCPLUG_EQUIP,BLDG_EQUIP_SCH,PERIMETER_TOP_ZN_1,207.34,11.2,1673.203,8.070,149.929,0.000,0.500,0.000,0.500,MiscPlug,0.000,1673.203
 ElectricEquipment Internal Gains Nominal, PERIMETER_TOP_ZN_4_MISCPLUG_EQUIP,BLDG_EQUIP_SCH,PERIMETER_TOP_ZN_4,131.25,7.1,1059.210,8.070,149.930,0.000,0.500,0.000,0.500,MiscPlug,0.000,1059.210
 ElectricEquipment Internal Gains Nominal, PERIMETER_BOT_ZN_3_MISCPLUG_EQUIP,BLDG_EQUIP_SCH,PERIMETER_BOT_ZN_3,207.34,11.2,1673.214,8.070,149.930,0.000,0.500,0.000,0.500,MiscPlug,0.000,1673.214
 ElectricEquipment Internal Gains Nominal, PERIMETER_BOT_ZN_2_MISCPLUG_EQUIP,BLDG_EQUIP_SCH,PERIMETER_BOT_ZN_2,131.26,7.1,1059.217,8.069,149.921,0.000,0.500,0.000,0.500,MiscPlug,0.000,1059.217
 ElectricEquipment Internal Gains Nominal, PERIMETER_BOT_ZN_1_MISCPLUG_EQUIP,BLDG_EQUIP_SCH,PERIMETER_BOT_ZN_1,207.34,11.2,1673.203,8.070,149.929,0.000,0.500,0.000,0.500,MiscPlug,0.000,1673.203
 ElectricEquipment Internal Gains Nominal, PERIMETER_BOT_ZN_4_MISCPLUG_EQUIP,BLDG_EQUIP_SCH,PERIMETER_BOT_ZN_4,131.25,7.1,1059.210,8.070,149.930,0.000,0.500,0.000,0.500,MiscPlug,0.000,1059.210
 ElectricEquipment Internal Gains Nominal, PERIMETER_MID_ZN_3_MISCPLUG_EQUIP,BLDG_EQUIP_SCH,PERIMETER_MID_ZN_3,207.34,11.2,1673.214,8.070,149.930,0.000,0.500,0.000,0.500,MiscPlug,0.000,1673.214
 ElectricEquipment Internal Gains Nominal, PERIMETER_MID_ZN_2_MISCPLUG_EQUIP,BLDG_EQUIP_SCH,PERIMETER_MID_ZN_2,131.26,7.1,1059.217,8.069,149.921,0.000,0.500,0.000,0.500,MiscPlug,0.000,1059.217
 ElectricEquipment Internal Gains Nominal, PERIMETER_MID_ZN_1_MISCPLUG_EQUIP,BLDG_EQUIP_SCH,PERIMETER_MID_ZN_1,207.34,11.2,1673.203,8.070,149.929,0.000,0.500,0.000,0.500,MiscPlug,0.000,1673.203
 ElectricEquipment Internal Gains Nominal, PERIMETER_MID_ZN_4_MISCPLUG_EQUIP,BLDG_EQUIP_SCH,PERIMETER_MID_ZN_4,131.25,7.1,1059.210,8.070,149.930,0.000,0.500,0.000,0.500,MiscPlug,0.000,1059.210
 ElectricEquipment Internal Gains Nominal, CORE_BOTTOM_ELEVATORS_EQUIP,BLDG_ELEVATORS,CORE_BOTTOM,983.54,52.9,32109.890,32.647,606.549,0.000,0.500,0.000,0.500,MiscPlug,0.000,22155.824
 ElectricEquipment Internal Gains Nominal, ELEVATORS_LIGHTS_FAN,ELEV_LIGHT_FAN_SCH_ADD_DF,CORE_BOTTOM,983.54,52.9,125.000,0.127,2.361,0.000,0.500,0.000,0.500,MiscPlug,0.000,86.250
! <Construction CTF>,Construction Name,Index,#Layers,#CTFs,Time Step {hours},ThermalConductance {w/m2-K},OuterThermalAbsorptance,InnerThermalAbsorptance,OuterSolarAbsorptance,InnerSolarAbsorptance,Roughness
! <Material CTF Summary>,Material Name,Thickness {m},Conductivity {w/m-K},Density {kg/m3},Specific Heat {J/kg-K},ThermalResistance {m2-K/w}
! <Material:Air>,Material Name,ThermalResistance {m2-K/w}
! <CTF>,Time,Outside,Cross,Inside,Flux (except final one)
 Construction CTF,SWINGING DOOR_CON,   1,   1,   1,   0.250,      2.101    ,   0.900,   0.900,   0.700,   0.700,MediumRough
 Material CTF Summary,OPAQUE DOOR PANEL_CON,  0.0000,         0.000,      0.000,        0.000,  0.4760    
 CTF,   1,       0.0000000    ,       0.0000000    ,      -0.0000000    ,      -0.0000000    
 CTF,   0,       2.1010000    ,       2.1010000    ,       2.1010000    
 Construction CTF,INTERIORFURNISHINGS,   2,   1,   7,   0.250,     0.8000    ,   0.900,   0.900,   0.700,   0.700,MediumSmooth
 Material CTF Summary,STD WOOD 6INCH,  0.1500,         0.120,    540.000,     1210.000,   1.250    
 CTF,   7,     -0.19879948E-01,      0.18371110E-08,     -0.19879948E-01,      0.25920384E-02
 CTF,   6,      0.37833182    ,      0.93111392E-06,      0.37833182    ,     -0.50805208E-01
 CTF,   5,      -2.8822885    ,      0.33090332E-04,      -2.8822885    ,      0.40100636    
 CTF,   4,       11.391948    ,      0.23980383E-03,       11.391948    ,      -1.6521297    
 CTF,   3,      -25.286828    ,      0.46344169E-03,      -25.286828    ,       3.8446603    
 CTF,   2,       31.657742    ,      0.23933549E-03,       31.657742    ,      -5.0707043    
 CTF,   1,      -20.807361    ,      0.25331892E-04,      -20.807361    ,       3.5241279    
 CTF,   0,       5.5693388    ,      0.18852057E-06,       5.5693388    
 Construction CTF,DROPCEILING,   4,   1,   3,   0.250,      4.488    ,   0.900,   0.900,   0.700,   0.700,MediumSmooth
 Material CTF Summary,AC02 ACOUSTIC CEILING,  0.0127,         0.057,    288.000,     1339.000,  0.2228    
 CTF,   3,     -0.53260828E-14,      0.38590732E-14,     -0.53260829E-14,       0.0000000    
 CTF,   2,      0.29572608E-03,      0.17480917E-03,      0.29572608E-03,     -0.50670342E-13
 CTF,   1,      -1.7155691    ,       1.0037059    ,      -1.7155691    ,      0.66704272E-03
 CTF,   0,       6.2004685    ,       3.4813145    ,       6.2004685    
 Construction CTF,INT_WALL,   7,   2,   4,   0.250,      6.299    ,   0.900,   0.900,   0.700,   0.700,Smooth
 Material CTF Summary,G01 13MM GYPSUM BOARD,  0.0127,         0.160,    800.000,     1090.000,  0.7937E-01
 Material CTF Summary,G01 13MM GYPSUM BOARD,  0.0127,         0.160,    800.000,     1090.000,  0.7937E-01
 CTF,   4,      0.12042566E-13,      0.45929688E-14,      0.12042579E-13,       0.0000000    
 CTF,   3,     -0.90043060E-05,      0.30474453E-05,     -0.90043060E-05,      0.18391453E-13
 CTF,   2,      0.23735444    ,      0.83694685E-01,      0.23735444    ,     -0.65848504E-05
 CTF,   1,      -8.4013897    ,       3.1829864    ,      -8.4013897    ,      0.83534042E-01
 CTF,   0,       13.937100    ,       2.5063712    ,       13.937100    
 Construction CTF,EXT_SLAB_8IN_WITH_CARPET,   8,   2,   7,   0.250,      3.285    ,   0.900,   0.900,   0.700,   0.700,MediumRough
 Material CTF Summary,200MM NORMALWEIGHT CONCRETE FLOOR,  0.2032,         2.310,   2322.000,      832.000,  0.8797E-01
 Material CTF Summary,CP02 CARPET PAD,  0.0000,         0.000,      0.000,        0.000,  0.2165    
 CTF,   7,     -0.10378937E-14,     -0.57568845E-15,     -0.49053640E-10,     -0.25280578E-17
 CTF,   6,      0.22253093E-02,      0.74852569E-07,      0.11525024E-03,     -0.21216748E-04
 CTF,   5,     -0.16504329    ,      0.46682053E-04,     -0.84513039E-02,      0.16388344E-02
 CTF,   4,       3.7453048    ,      0.21966331E-02,      0.19659200    ,     -0.39849567E-01
 CTF,   3,      -30.717465    ,      0.18038764E-01,      -1.7434326    ,      0.36581047    
 CTF,   2,       97.127517    ,      0.30720456E-01,       6.2408452    ,      -1.3453403    
 CTF,   1,      -123.02143    ,      0.96741016E-02,      -9.0622796    ,       1.9992282    
 CTF,   0,       53.089772    ,      0.20065040E-03,       4.4374874    
 Construction CTF,INT_SLAB_FLOOR,  12,   2,   6,   0.250,      3.839    ,   0.900,   0.900,   0.700,   0.700,MediumRough
 Material CTF Summary,100MM NORMALWEIGHT CONCRETE FLOOR,  0.1016,         2.310,   2322.000,      832.000,  0.4398E-01
 Material CTF Summary,CP02 CARPET PAD,  0.0000,         0.000,      0.000,        0.000,  0.2165    
 CTF,   6,      0.12620589E-13,      0.23342927E-14,      0.34773710E-15,      0.44665978E-16
 CTF,   5,     -0.24159609E-07,      0.13931939E-08,     -0.39969524E-09,      0.71956923E-12
 CTF,   4,      0.96276627E-03,      0.27481775E-04,      0.50620123E-05,     -0.15578040E-06
 CTF,   3,     -0.86089205    ,      0.12594216E-01,     -0.51311376E-02,      0.80173640E-03
 CTF,   2,       28.790752    ,      0.27225761    ,      0.51152910    ,     -0.10404061    
 CTF,   1,      -97.558265    ,      0.49524356    ,      -4.0761999    ,      0.88415844    
 CTF,   0,       70.468563    ,      0.60998910E-01,       4.4109175    
 Construction CTF,INT_SLAB_CEILING,  13,   2,   6,   0.250,      3.839    ,   0.900,   0.900,   0.700,   0.700,VeryRough
 Material CTF Summary,CP02 CARPET PAD,  0.0000,         0.000,      0.000,        0.000,  0.2165    
 Material CTF Summary,100MM NORMALWEIGHT CONCRETE FLOOR,  0.1016,         2.310,   2322.000,      832.000,  0.4398E-01
 CTF,   6,      0.34773710E-15,      0.23342927E-14,      0.12620589E-13,      0.44665978E-16
 CTF,   5,     -0.39969524E-09,      0.13931939E-08,     -0.24159609E-07,      0.71956923E-12
 CTF,   4,      0.50620123E-05,      0.27481775E-04,      0.96276627E-03,     -0.15578040E-06
 CTF,   3,     -0.51311376E-02,      0.12594216E-01,     -0.86089205    ,      0.80173640E-03
 CTF,   2,      0.51152910    ,      0.27225761    ,       28.790752    ,     -0.10404061    
 CTF,   1,      -4.0761999    ,      0.49524356    ,      -97.558265    ,      0.88415844    
 CTF,   0,       4.4109175    ,      0.60998910E-01,       70.468563    
 Construction CTF,NONRES_ROOF,  17,   3,   3,   0.250,     0.1864    ,   0.900,   0.900,   0.700,   0.700,Rough
 Material CTF Summary,F13 BUILT-UP ROOFING,  0.0095,         0.160,   1120.000,     1460.000,  0.5938E-01
 Material CTF Summary,NONRES_ROOF_INSULATION,  0.0000,         0.000,      0.000,        0.000,   5.307    
 Material CTF Summary,F08 METAL SURFACE,  0.0008,        45.280,   7824.000,      500.000,  0.1767E-04
 CTF,   3,     -0.36001017E-09,      0.48474703E-12,     -0.22061971E-08,      0.42112828E-18
 CTF,   2,      0.23532522    ,      0.34379438E-03,      0.31919894    ,     -0.63445960E-09
 CTF,   1,      -15.986175    ,      0.70694107E-01,      -3.8142812    ,      0.91794137E-01
 CTF,   0,       15.920099    ,      0.98211582E-01,       3.6643317    
 Construction CTF,NONRES_EXT_WALL,  20,   4,   6,   0.250,     0.3276    ,   0.900,   0.900,   0.700,   0.700,Smooth
 Material CTF Summary,F07 25MM STUCCO,  0.0254,         0.720,   1856.000,      840.000,  0.3528E-01
 Material CTF Summary,G01 16MM GYPSUM BOARD,  0.0159,         0.160,    800.000,     1090.000,  0.9938E-01
 Material CTF Summary,NONRES_EXTERIOR_WALL_INSULATION,  0.0000,         0.000,      0.000,        0.000,   2.818    
 Material CTF Summary,G01 16MM GYPSUM BOARD,  0.0159,         0.160,    800.000,     1090.000,  0.9938E-01
 CTF,   6,      0.17058010E-11,      0.52762647E-14,      0.32155473E-12,      0.15334590E-15
 CTF,   5,     -0.63480604E-06,      0.39207494E-08,     -0.38531877E-06,      0.57196598E-12
 CTF,   4,      0.37349151E-01,      0.48094847E-04,      0.12780006E-01,     -0.18354865E-06
 CTF,   3,      -2.1255408    ,      0.68279691E-02,     -0.61430978    ,      0.55989707E-02
 CTF,   2,       19.131456    ,      0.60087495E-01,       7.8966043    ,     -0.13612288    
 CTF,   1,      -54.591175    ,      0.56505533E-01,      -19.914583    ,      0.74470269    
 CTF,   0,       37.674315    ,      0.29339959E-02,       12.745912    
! <WindowConstruction>,Construction Name,Index,#Layers,Roughness,Conductance {W/m2-K},SHGC,Solar Transmittance at Normal Incidence,Visible Transmittance at Normal Incidence
! <WindowMaterial:Glazing>, Material Name, Optical Data Type, Spectral Data Set Name, Thickness {m}, Solar Transmittance,Front Solar Reflectance, Back Solar Reflectance, Visible Transmittance, Front Visible Reflectance,Back Visible Reflectance,Infrared Transmittance, Front Thermal Emissivity, Back Thermal Emissivity,Conductivity {W/m-K},Dirt Factor,Solar Diffusing
! <WindowMaterial:Gas>,Material Name,GasType,Thickness {m}
 WindowConstruction,WINDOW_U_1.22_SHGC_0.61,29,1,VerySmooth,5.778,0.623,0.487,0.749
 WindowMaterial:Glazing,GREEN 6MM,SpectralAverage,,6.00000E-003,0.48700,5.60000E-002,5.60000E-002,0.74900,7.00000E-002,7.00000E-002,0.00000,0.84000,0.84000,0.90000,1.00000,No
 WindowConstruction,WINDOW_U_1.22_SHGC_0.39,30,1,VerySmooth,5.067,0.400,0.241,0.301
 WindowMaterial:Glazing,REF B CLEAR HI 6MM,SpectralAverage,,6.00000E-003,0.24000,0.16000,0.32000,0.30000,0.16000,0.29000,0.00000,0.84000,0.60000,0.90000,1.00000,No
 WindowConstruction,WINDOW_U_1.22_SHGC_0.34,31,1,VerySmooth,4.913,0.365,0.201,0.221
 WindowMaterial:Glazing,REF C CLEAR HI 6MM,SpectralAverage,,6.00000E-003,0.20000,0.16000,0.39000,0.22000,0.17000,0.35000,0.00000,0.84000,0.55000,0.90000,1.00000,No
 WindowConstruction,WINDOW_U_1.22_SHGC_0.25,32,1,VerySmooth,5.778,0.306,9.905E-002,0.155
 WindowMaterial:Glazing,ECREF-1 COLORED 6MM,SpectralAverage,,6.00000E-003,9.90000E-002,0.21900,0.21900,0.15500,7.30000E-002,7.30000E-002,0.00000,0.84000,0.84000,0.90000,1.00000,No
 WindowConstruction,WINDOW_U_0.72_SHGC_0.25,33,1,VerySmooth,4.600,0.293,0.100,0.130
 WindowMaterial:Glazing,REF B TINT MID 6MM,SpectralAverage,,6.00000E-003,0.10000,0.11000,0.41000,0.13000,0.10000,0.32000,0.00000,0.84000,0.45000,0.90000,1.00000,No
 WindowConstruction,WINDOW_U_0.62_SHGC_0.39,34,3,VerySmooth,3.045,0.428,0.343,0.308
 WindowMaterial:Glazing,REF D CLEAR 6MM,SpectralAverage,,6.00000E-003,0.42900,0.30800,0.37900,0.33400,0.45300,0.50500,0.00000,0.84000,0.82000,0.90000,1.00000,No
 WindowMaterial:Gas,AIR 6MM,Air,6.300E-003
 WindowMaterial:Glazing,CLEAR 6MM,SpectralAverage,,6.00000E-003,0.77500,7.10000E-002,7.10000E-002,0.88100,8.00000E-002,8.00000E-002,0.00000,0.84000,0.84000,0.90000,1.00000,No
 WindowConstruction,WINDOW_U_0.57_SHGC_0.39,35,3,VerySmooth,3.045,0.428,0.343,0.308
 WindowMaterial:Glazing,REF D CLEAR 6MM,SpectralAverage,,6.00000E-003,0.42900,0.30800,0.37900,0.33400,0.45300,0.50500,0.00000,0.84000,0.82000,0.90000,1.00000,No
 WindowMaterial:Gas,AIR 6MM,Air,6.300E-003
 WindowMaterial:Glazing,CLEAR 6MM,SpectralAverage,,6.00000E-003,0.77500,7.10000E-002,7.10000E-002,0.88100,8.00000E-002,8.00000E-002,0.00000,0.84000,0.84000,0.90000,1.00000,No
 WindowConstruction,WINDOW_U_0.65_SHGC_0.25,36,3,VerySmooth,2.848,0.287,0.160,0.200
 WindowMaterial:Glazing,REF C CLEAR HI 6MM,SpectralAverage,,6.00000E-003,0.20000,0.16000,0.39000,0.22000,0.17000,0.35000,0.00000,0.84000,0.55000,0.90000,1.00000,No
 WindowMaterial:Gas,AIR 6MM,Air,6.300E-003
 WindowMaterial:Glazing,CLEAR 6MM,SpectralAverage,,6.00000E-003,0.77500,7.10000E-002,7.10000E-002,0.88100,8.00000E-002,8.00000E-002,0.00000,0.84000,0.84000,0.90000,1.00000,No
 WindowConstruction,WINDOW_U_0.62_SHGC_0.25,37,3,VerySmooth,2.848,0.287,0.160,0.200
 WindowMaterial:Glazing,REF C CLEAR HI 6MM,SpectralAverage,,6.00000E-003,0.20000,0.16000,0.39000,0.22000,0.17000,0.35000,0.00000,0.84000,0.55000,0.90000,1.00000,No
 WindowMaterial:Gas,AIR 6MM,Air,6.300E-003
 WindowMaterial:Glazing,CLEAR 6MM,SpectralAverage,,6.00000E-003,0.77500,7.10000E-002,7.10000E-002,0.88100,8.00000E-002,8.00000E-002,0.00000,0.84000,0.84000,0.90000,1.00000,No
 WindowConstruction,WINDOW_U_0.57_SHGC_0.25,38,3,VerySmooth,2.848,0.287,0.160,0.200
 WindowMaterial:Glazing,REF C CLEAR HI 6MM,SpectralAverage,,6.00000E-003,0.20000,0.16000,0.39000,0.22000,0.17000,0.35000,0.00000,0.84000,0.55000,0.90000,1.00000,No
 WindowMaterial:Gas,AIR 6MM,Air,6.300E-003
 WindowMaterial:Glazing,CLEAR 6MM,SpectralAverage,,6.00000E-003,0.77500,7.10000E-002,7.10000E-002,0.88100,8.00000E-002,8.00000E-002,0.00000,0.84000,0.84000,0.90000,1.00000,No
 WindowConstruction,WINDOW_U_0.62_SHGC_0.49,39,3,VerySmooth,3.058,0.502,0.373,0.505
 WindowMaterial:Glazing,BLUE 6MM,SpectralAverage,,6.00000E-003,0.48000,5.00000E-002,5.00000E-002,0.57000,6.00000E-002,6.00000E-002,0.00000,0.84000,0.84000,0.90000,1.00000,No
 WindowMaterial:Gas,AIR 6MM,Air,6.300E-003
 WindowMaterial:Glazing,CLEAR 6MM,SpectralAverage,,6.00000E-003,0.77500,7.10000E-002,7.10000E-002,0.88100,8.00000E-002,8.00000E-002,0.00000,0.84000,0.84000,0.90000,1.00000,No
 WindowConstruction,WINDOW_U_0.57_SHGC_0.49,40,3,VerySmooth,3.058,0.502,0.373,0.505
 WindowMaterial:Glazing,BLUE 6MM,SpectralAverage,,6.00000E-003,0.48000,5.00000E-002,5.00000E-002,0.57000,6.00000E-002,6.00000E-002,0.00000,0.84000,0.84000,0.90000,1.00000,No
 WindowMaterial:Gas,AIR 6MM,Air,6.300E-003
 WindowMaterial:Glazing,CLEAR 6MM,SpectralAverage,,6.00000E-003,0.77500,7.10000E-002,7.10000E-002,0.88100,8.00000E-002,8.00000E-002,0.00000,0.84000,0.84000,0.90000,1.00000,No
 WindowConstruction,WINDOW_U_0.52_SHGC_0.40,41,3,VerySmooth,2.653,0.426,0.343,0.308
 WindowMaterial:Glazing,REF D CLEAR 6MM,SpectralAverage,,6.00000E-003,0.42900,0.30800,0.37900,0.33400,0.45300,0.50500,0.00000,0.84000,0.82000,0.90000,1.00000,No
 WindowMaterial:Gas,AIR 13MM,Air,1.270E-002
 WindowMaterial:Glazing,CLEAR 6MM,SpectralAverage,,6.00000E-003,0.77500,7.10000E-002,7.10000E-002,0.88100,8.00000E-002,8.00000E-002,0.00000,0.84000,0.84000,0.90000,1.00000,No
 WindowConstruction,WINDOW_U_0.48_SHGC_0.40,42,3,VerySmooth,2.653,0.426,0.343,0.308
 WindowMaterial:Glazing,REF D CLEAR 6MM,SpectralAverage,,6.00000E-003,0.42900,0.30800,0.37900,0.33400,0.45300,0.50500,0.00000,0.84000,0.82000,0.90000,1.00000,No
 WindowMaterial:Gas,AIR 13MM,Air,1.270E-002
 WindowMaterial:Glazing,CLEAR 6MM,SpectralAverage,,6.00000E-003,0.77500,7.10000E-002,7.10000E-002,0.88100,8.00000E-002,8.00000E-002,0.00000,0.84000,0.84000,0.90000,1.00000,No
 WindowConstruction,WINDOW_U_0.42_SHGC_0.45,43,3,VerySmooth,2.493,0.426,0.343,0.308
 WindowMaterial:Glazing,REF D CLEAR 6MM,SpectralAverage,,6.00000E-003,0.42900,0.30800,0.37900,0.33400,0.45300,0.50500,0.00000,0.84000,0.82000,0.90000,1.00000,No
 WindowMaterial:Gas,ARGON 13MM,Argon,1.270E-002
 WindowMaterial:Glazing,CLEAR 6MM,SpectralAverage,,6.00000E-003,0.77500,7.10000E-002,7.10000E-002,0.88100,8.00000E-002,8.00000E-002,0.00000,0.84000,0.84000,0.90000,1.00000,No
 WindowConstruction,WINDOW_U_0.46_SHGC_0.45,44,3,VerySmooth,2.670,0.479,0.354,0.381
 WindowMaterial:Glazing,GREY 6MM,SpectralAverage,,6.00000E-003,0.45500,5.30000E-002,5.30000E-002,0.43100,5.20000E-002,5.20000E-002,0.00000,0.84000,0.84000,0.90000,1.00000,No
 WindowMaterial:Gas,AIR 13MM,Air,1.270E-002
 WindowMaterial:Glazing,CLEAR 6MM,SpectralAverage,,6.00000E-003,0.77500,7.10000E-002,7.10000E-002,0.88100,8.00000E-002,8.00000E-002,0.00000,0.84000,0.84000,0.90000,1.00000,No
 WindowConstruction,WINDOW_U_0.42_SHGC_0.40,45,3,VerySmooth,2.371,0.397,0.284,0.444
 WindowMaterial:Glazing,LOE TINT 6MM,SpectralAverage,,6.00000E-003,0.36000,9.30000E-002,0.20000,0.50000,3.50000E-002,5.40000E-002,0.00000,0.84000,0.10000,0.90000,1.00000,No
 WindowMaterial:Gas,AIR 6MM,Air,6.300E-003
 WindowMaterial:Glazing,CLEAR 6MM,SpectralAverage,,6.00000E-003,0.77500,7.10000E-002,7.10000E-002,0.88100,8.00000E-002,8.00000E-002,0.00000,0.84000,0.84000,0.90000,1.00000,No
 WindowConstruction,WINDOW_U_0.43_SHGC_0.26,46,3,VerySmooth,2.447,0.305,0.191,0.271
 WindowMaterial:Glazing,REF B CLEAR HI 6MM,SpectralAverage,,6.00000E-003,0.24000,0.16000,0.32000,0.30000,0.16000,0.29000,0.00000,0.84000,0.60000,0.90000,1.00000,No
 WindowMaterial:Gas,AIR 13MM,Air,1.270E-002
 WindowMaterial:Glazing,CLEAR 6MM,SpectralAverage,,6.00000E-003,0.77500,7.10000E-002,7.10000E-002,0.88100,8.00000E-002,8.00000E-002,0.00000,0.84000,0.84000,0.90000,1.00000,No
 WindowConstruction,WINDOW_U_0.44_SHGC_0.26,47,3,VerySmooth,2.447,0.305,0.191,0.271
 WindowMaterial:Glazing,REF B CLEAR HI 6MM,SpectralAverage,,6.00000E-003,0.24000,0.16000,0.32000,0.30000,0.16000,0.29000,0.00000,0.84000,0.60000,0.90000,1.00000,No
 WindowMaterial:Gas,AIR 13MM,Air,1.270E-002
 WindowMaterial:Glazing,CLEAR 6MM,SpectralAverage,,6.00000E-003,0.77500,7.10000E-002,7.10000E-002,0.88100,8.00000E-002,8.00000E-002,0.00000,0.84000,0.84000,0.90000,1.00000,No
 WindowConstruction,WINDOW_U_0.42_SHGC_0.35,48,3,VerySmooth,2.371,0.397,0.284,0.444
 WindowMaterial:Glazing,LOE TINT 6MM,SpectralAverage,,6.00000E-003,0.36000,9.30000E-002,0.20000,0.50000,3.50000E-002,5.40000E-002,0.00000,0.84000,0.10000,0.90000,1.00000,No
 WindowMaterial:Gas,AIR 6MM,Air,6.300E-003
 WindowMaterial:Glazing,CLEAR 6MM,SpectralAverage,,6.00000E-003,0.77500,7.10000E-002,7.10000E-002,0.88100,8.00000E-002,8.00000E-002,0.00000,0.84000,0.84000,0.90000,1.00000,No
 WindowConstruction,WINDOW_U_0.33_SHGC_0.40,49,3,VerySmooth,1.761,0.380,0.284,0.444
 WindowMaterial:Glazing,LOE TINT 6MM,SpectralAverage,,6.00000E-003,0.36000,9.30000E-002,0.20000,0.50000,3.50000E-002,5.40000E-002,0.00000,0.84000,0.10000,0.90000,1.00000,No
 WindowMaterial:Gas,AIR 13MM,Air,1.270E-002
 WindowMaterial:Glazing,CLEAR 6MM,SpectralAverage,,6.00000E-003,0.77500,7.10000E-002,7.10000E-002,0.88100,8.00000E-002,8.00000E-002,0.00000,0.84000,0.84000,0.90000,1.00000,No
 WindowConstruction,WINDOW_U_0.34_SHGC_0.40,50,3,VerySmooth,1.761,0.380,0.284,0.444
 WindowMaterial:Glazing,LOE TINT 6MM,SpectralAverage,,6.00000E-003,0.36000,9.30000E-002,0.20000,0.50000,3.50000E-002,5.40000E-002,0.00000,0.84000,0.10000,0.90000,1.00000,No
 WindowMaterial:Gas,AIR 13MM,Air,1.270E-002
 WindowMaterial:Glazing,CLEAR 6MM,SpectralAverage,,6.00000E-003,0.77500,7.10000E-002,7.10000E-002,0.88100,8.00000E-002,8.00000E-002,0.00000,0.84000,0.84000,0.90000,1.00000,No
 WindowConstruction,WINDOW_U_0.35_SHGC_0.35,51,3,VerySmooth,1.761,0.380,0.284,0.444
 WindowMaterial:Glazing,LOE TINT 6MM,SpectralAverage,,6.00000E-003,0.36000,9.30000E-002,0.20000,0.50000,3.50000E-002,5.40000E-002,0.00000,0.84000,0.10000,0.90000,1.00000,No
 WindowMaterial:Gas,AIR 13MM,Air,1.270E-002
 WindowMaterial:Glazing,CLEAR 6MM,SpectralAverage,,6.00000E-003,0.77500,7.10000E-002,7.10000E-002,0.88100,8.00000E-002,8.00000E-002,0.00000,0.84000,0.84000,0.90000,1.00000,No
 WindowConstruction,WINDOW_U_0.55_SHGC_0.31,52,3,VerySmooth,3.045,0.368,0.239,0.229
 WindowMaterial:Glazing,REF D TINT 6MM,SpectralAverage,,6.00000E-003,0.30000,0.14000,0.36000,0.25000,0.18000,0.45000,0.00000,0.84000,0.82000,0.90000,1.00000,No
 WindowMaterial:Gas,AIR 6MM,Air,6.300E-003
 WindowMaterial:Glazing,CLEAR 6MM,SpectralAverage,,6.00000E-003,0.77500,7.10000E-002,7.10000E-002,0.88100,8.00000E-002,8.00000E-002,0.00000,0.84000,0.84000,0.90000,1.00000,No
 WindowConstruction,WINDOW_U_0.43_SHGC_0.29,53,3,VerySmooth,2.272,0.313,0.208,0.408
 WindowMaterial:Glazing,LOE SPEC SEL TINT 6MM,SpectralAverage,,6.00000E-003,0.26000,0.14000,0.41000,0.46000,6.00000E-002,4.00000E-002,0.00000,0.84000,3.00000E-002,0.90000,1.00000,No
 WindowMaterial:Gas,AIR 6MM,Air,6.300E-003
 WindowMaterial:Glazing,CLEAR 6MM,SpectralAverage,,6.00000E-003,0.77500,7.10000E-002,7.10000E-002,0.88100,8.00000E-002,8.00000E-002,0.00000,0.84000,0.84000,0.90000,1.00000,No
 WindowConstruction,WINDOW_U_0.34_SHGC_0.45,54,3,VerySmooth,1.932,0.634,0.531,0.721
 WindowMaterial:Glazing,PYR B CLEAR 6MM,SpectralAverage,,6.00000E-003,0.68000,9.00000E-002,0.10000,0.81000,0.11000,0.12000,0.00000,0.84000,0.20000,0.90000,1.00000,No
 WindowMaterial:Gas,AIR 13MM,Air,1.270E-002
 WindowMaterial:Glazing,CLEAR 6MM,SpectralAverage,,6.00000E-003,0.77500,7.10000E-002,7.10000E-002,0.88100,8.00000E-002,8.00000E-002,0.00000,0.84000,0.84000,0.90000,1.00000,No
 WindowConstruction,WINDOW_U_0.56_SHGC_0.35,55,3,VerySmooth,3.045,0.368,0.239,0.229
 WindowMaterial:Glazing,REF D TINT 6MM,SpectralAverage,,6.00000E-003,0.30000,0.14000,0.36000,0.25000,0.18000,0.45000,0.00000,0.84000,0.82000,0.90000,1.00000,No
 WindowMaterial:Gas,AIR 6MM,Air,6.300E-003
 WindowMaterial:Glazing,CLEAR 6MM,SpectralAverage,,6.00000E-003,0.77500,7.10000E-002,7.10000E-002,0.88100,8.00000E-002,8.00000E-002,0.00000,0.84000,0.84000,0.90000,1.00000,No
 WindowConstruction,WINDOW_U_0.45_SHGC_0.31,56,3,VerySmooth,2.447,0.305,0.191,0.271
 WindowMaterial:Glazing,REF B CLEAR HI 6MM,SpectralAverage,,6.00000E-003,0.24000,0.16000,0.32000,0.30000,0.16000,0.29000,0.00000,0.84000,0.60000,0.90000,1.00000,No
 WindowMaterial:Gas,AIR 13MM,Air,1.270E-002
 WindowMaterial:Glazing,CLEAR 6MM,SpectralAverage,,6.00000E-003,0.77500,7.10000E-002,7.10000E-002,0.88100,8.00000E-002,8.00000E-002,0.00000,0.84000,0.84000,0.90000,1.00000,No
 WindowConstruction,WINDOW_U_0.33_SHGC_0.45,57,5,VerySmooth,1.745,0.462,0.377,0.637
 WindowMaterial:Glazing,CLEAR 3MM,SpectralAverage,,3.00000E-003,0.83700,7.50000E-002,7.50000E-002,0.89800,8.10000E-002,8.10000E-002,0.00000,0.84000,0.84000,0.90000,1.00000,No
 WindowMaterial:Gas,AIR 6MM,Air,6.300E-003
 WindowMaterial:Glazing,COATED POLY-77,SpectralAverage,,5.10000E-004,0.50400,0.40200,0.39800,0.76600,0.14700,0.16700,0.00000,7.50000E-002,0.72000,0.14000,1.00000,No
 WindowMaterial:Gas,AIR 6MM,Air,6.300E-003
 WindowMaterial:Glazing,CLEAR 3MM,SpectralAverage,,3.00000E-003,0.83700,7.50000E-002,7.50000E-002,0.89800,8.10000E-002,8.10000E-002,0.00000,0.84000,0.84000,0.90000,1.00000,No
 WindowConstruction,WINDOW_U_0.38_SHGC_0.26,58,3,VerySmooth,2.267,0.242,0.119,0.163
 WindowMaterial:Glazing,REF B TINT HI 6MM,SpectralAverage,,6.00000E-003,0.15000,9.00000E-002,0.33000,0.18000,8.00000E-002,0.28000,0.00000,0.84000,0.60000,0.90000,1.00000,No
 WindowMaterial:Gas,ARGON 13MM,Argon,1.270E-002
 WindowMaterial:Glazing,CLEAR 6MM,SpectralAverage,,6.00000E-003,0.77500,7.10000E-002,7.10000E-002,0.88100,8.00000E-002,8.00000E-002,0.00000,0.84000,0.84000,0.90000,1.00000,No
 WindowConstruction,WINDOW_U_0.25_SHGC_0.40,59,3,VerySmooth,1.493,0.373,0.284,0.444
 WindowMaterial:Glazing,LOE TINT 6MM,SpectralAverage,,6.00000E-003,0.36000,9.30000E-002,0.20000,0.50000,3.50000E-002,5.40000E-002,0.00000,0.84000,0.10000,0.90000,1.00000,No
 WindowMaterial:Gas,ARGON 13MM,Argon,1.270E-002
 WindowMaterial:Glazing,CLEAR 6MM,SpectralAverage,,6.00000E-003,0.77500,7.10000E-002,7.10000E-002,0.88100,8.00000E-002,8.00000E-002,0.00000,0.84000,0.84000,0.90000,1.00000,No
 WindowConstruction,WINDOW_U_0.35_SHGC_0.26,60,3,VerySmooth,2.158,0.238,0.136,0.173
 WindowMaterial:Glazing,REF C CLEAR MID 6MM,SpectralAverage,,6.00000E-003,0.17000,0.20000,0.42000,0.19000,0.21000,0.38000,0.00000,0.84000,0.51000,0.90000,1.00000,No
 WindowMaterial:Gas,ARGON 13MM,Argon,1.270E-002
 WindowMaterial:Glazing,CLEAR 6MM,SpectralAverage,,6.00000E-003,0.77500,7.10000E-002,7.10000E-002,0.88100,8.00000E-002,8.00000E-002,0.00000,0.84000,0.84000,0.90000,1.00000,No
 WindowConstruction,WINDOW_U_0.54_SHGC_0.27,61,3,VerySmooth,2.848,0.287,0.160,0.200
 WindowMaterial:Glazing,REF C CLEAR HI 6MM,SpectralAverage,,6.00000E-003,0.20000,0.16000,0.39000,0.22000,0.17000,0.35000,0.00000,0.84000,0.55000,0.90000,1.00000,No
 WindowMaterial:Gas,AIR 6MM,Air,6.300E-003
 WindowMaterial:Glazing,CLEAR 6MM,SpectralAverage,,6.00000E-003,0.77500,7.10000E-002,7.10000E-002,0.88100,8.00000E-002,8.00000E-002,0.00000,0.84000,0.84000,0.90000,1.00000,No
 WindowConstruction,WINDOW_U_0.54_SHGC_0.18,62,3,VerySmooth,2.779,0.187,4.810E-002,8.185E-002
 WindowMaterial:Glazing,REF A TINT MID 6MM,SpectralAverage,,6.00000E-003,6.00000E-002,0.13000,0.42000,9.00000E-002,0.14000,0.35000,0.00000,0.84000,0.47000,0.90000,1.00000,No
 WindowMaterial:Gas,AIR 6MM,Air,6.300E-003
 WindowMaterial:Glazing,CLEAR 6MM,SpectralAverage,,6.00000E-003,0.77500,7.10000E-002,7.10000E-002,0.88100,8.00000E-002,8.00000E-002,0.00000,0.84000,0.84000,0.90000,1.00000,No
 WindowConstruction,WINDOW_U_0.54_SHGC_0.13,63,3,VerySmooth,2.219,0.138,5.319E-002,7.288E-002
 WindowMaterial:Glazing,REF A CLEAR LO 6MM,SpectralAverage,,6.00000E-003,6.60000E-002,0.34100,0.49300,8.00000E-002,0.41000,0.37000,0.00000,0.84000,0.40000,0.90000,1.00000,No
 WindowMaterial:Gas,AIR 13MM,Air,1.270E-002
 WindowMaterial:Glazing,CLEAR 6MM,SpectralAverage,,6.00000E-003,0.77500,7.10000E-002,7.10000E-002,0.88100,8.00000E-002,8.00000E-002,0.00000,0.84000,0.84000,0.90000,1.00000,No
 WindowConstruction,WINDOW_U_0.33_SHGC_0.11,64,3,VerySmooth,1.614,0.119,4.705E-002,0.120
 WindowMaterial:Glazing,ECREF-2 COLORED 6MM,SpectralAverage,,6.00000E-003,9.90000E-002,0.21900,0.21900,0.15500,7.30000E-002,7.30000E-002,0.00000,0.84000,0.10000,0.90000,1.00000,No
 WindowMaterial:Gas,AIR 13MM,Air,1.270E-002
 WindowMaterial:Glazing,LOE SPEC SEL CLEAR 6MM REV,SpectralAverage,,6.00000E-003,0.43000,0.42000,0.30000,0.77000,6.00000E-002,7.00000E-002,0.00000,3.00000E-002,0.84000,0.90000,1.00000,No
 WindowConstruction,WINDOW_U_0.29_SHGC_0.22,65,5,VerySmooth,1.703,0.234,0.129,0.274
 WindowMaterial:Glazing,BRONZE 6MM,SpectralAverage,,6.00000E-003,0.48200,5.40000E-002,5.40000E-002,0.53400,5.70000E-002,5.70000E-002,0.00000,0.84000,0.84000,0.90000,1.00000,No
 WindowMaterial:Gas,AIR 6MM,Air,6.300E-003
 WindowMaterial:Glazing,COATED POLY-55,SpectralAverage,,5.10000E-004,0.32000,0.58200,0.59300,0.55100,0.33600,0.37500,0.00000,4.60000E-002,0.72000,0.14000,1.00000,No
 WindowMaterial:Gas,AIR 6MM,Air,6.300E-003
 WindowMaterial:Glazing,CLEAR 6MM,SpectralAverage,,6.00000E-003,0.77500,7.10000E-002,7.10000E-002,0.88100,8.00000E-002,8.00000E-002,0.00000,0.84000,0.84000,0.90000,1.00000,No
 WindowConstruction,WINDOW_U_0.29_SHGC_0.17,66,3,VerySmooth,1.761,0.169,8.718E-002,0.114
 WindowMaterial:Glazing,ECABS-2 COLORED 6MM,SpectralAverage,,6.00000E-003,0.11100,0.17900,0.17900,0.12800,8.10000E-002,8.10000E-002,0.00000,0.84000,0.10000,0.90000,1.00000,No
 WindowMaterial:Gas,AIR 13MM,Air,1.270E-002
 WindowMaterial:Glazing,CLEAR 6MM,SpectralAverage,,6.00000E-003,0.77500,7.10000E-002,7.10000E-002,0.88100,8.00000E-002,8.00000E-002,0.00000,0.84000,0.84000,0.90000,1.00000,No
 WindowConstruction,WINDOW_U_0.29_SHGC_0.11,67,3,VerySmooth,1.614,0.119,4.705E-002,0.120
 WindowMaterial:Glazing,ECREF-2 COLORED 6MM,SpectralAverage,,6.00000E-003,9.90000E-002,0.21900,0.21900,0.15500,7.30000E-002,7.30000E-002,0.00000,0.84000,0.10000,0.90000,1.00000,No
 WindowMaterial:Gas,AIR 13MM,Air,1.270E-002
 WindowMaterial:Glazing,LOE SPEC SEL CLEAR 6MM REV,SpectralAverage,,6.00000E-003,0.43000,0.42000,0.30000,0.77000,6.00000E-002,7.00000E-002,0.00000,3.00000E-002,0.84000,0.90000,1.00000,No
 WindowConstruction,WINDOW_U_0.24_SHGC_0.23,68,3,VerySmooth,1.333,0.283,0.208,0.408
 WindowMaterial:Glazing,LOE SPEC SEL TINT 6MM,SpectralAverage,,6.00000E-003,0.26000,0.14000,0.41000,0.46000,6.00000E-002,4.00000E-002,0.00000,0.84000,3.00000E-002,0.90000,1.00000,No
 WindowMaterial:Gas,ARGON 13MM,Argon,1.270E-002
 WindowMaterial:Glazing,CLEAR 6MM,SpectralAverage,,6.00000E-003,0.77500,7.10000E-002,7.10000E-002,0.88100,8.00000E-002,8.00000E-002,0.00000,0.84000,0.84000,0.90000,1.00000,No
 WindowConstruction,WINDOW_U_0.24_SHGC_0.16,69,3,VerySmooth,1.493,0.158,8.718E-002,0.114
 WindowMaterial:Glazing,ECABS-2 COLORED 6MM,SpectralAverage,,6.00000E-003,0.11100,0.17900,0.17900,0.12800,8.10000E-002,8.10000E-002,0.00000,0.84000,0.10000,0.90000,1.00000,No
 WindowMaterial:Gas,ARGON 13MM,Argon,1.270E-002
 WindowMaterial:Glazing,CLEAR 6MM,SpectralAverage,,6.00000E-003,0.77500,7.10000E-002,7.10000E-002,0.88100,8.00000E-002,8.00000E-002,0.00000,0.84000,0.84000,0.90000,1.00000,No
 WindowConstruction,WINDOW_U_0.24_SHGC_0.11,70,3,VerySmooth,1.318,0.115,5.180E-002,9.912E-002
 WindowMaterial:Glazing,ECABS-2 COLORED 6MM,SpectralAverage,,6.00000E-003,0.11100,0.17900,0.17900,0.12800,8.10000E-002,8.10000E-002,0.00000,0.84000,0.10000,0.90000,1.00000,No
 WindowMaterial:Gas,ARGON 13MM,Argon,1.270E-002
 WindowMaterial:Glazing,LOE SPEC SEL CLEAR 6MM REV,SpectralAverage,,6.00000E-003,0.43000,0.42000,0.30000,0.77000,6.00000E-002,7.00000E-002,0.00000,3.00000E-002,0.84000,0.90000,1.00000,No
 WindowConstruction,WINDOW_U_0.19_SHGC_0.20,71,5,VerySmooth,1.208,0.222,0.129,0.274
 WindowMaterial:Glazing,BRONZE 6MM,SpectralAverage,,6.00000E-003,0.48200,5.40000E-002,5.40000E-002,0.53400,5.70000E-002,5.70000E-002,0.00000,0.84000,0.84000,0.90000,1.00000,No
 WindowMaterial:Gas,AIR 13MM,Air,1.270E-002
 WindowMaterial:Glazing,COATED POLY-55,SpectralAverage,,5.10000E-004,0.32000,0.58200,0.59300,0.55100,0.33600,0.37500,0.00000,4.60000E-002,0.72000,0.14000,1.00000,No
 WindowMaterial:Gas,AIR 13MM,Air,1.270E-002
 WindowMaterial:Glazing,CLEAR 6MM,SpectralAverage,,6.00000E-003,0.77500,7.10000E-002,7.10000E-002,0.88100,8.00000E-002,8.00000E-002,0.00000,0.84000,0.84000,0.90000,1.00000,No
 WindowConstruction,WINDOW_U_0.71_SHGC_0.25,72,3,VerySmooth,2.848,0.287,0.160,0.200
 WindowMaterial:Glazing,REF C CLEAR HI 6MM,SpectralAverage,,6.00000E-003,0.20000,0.16000,0.39000,0.22000,0.17000,0.35000,0.00000,0.84000,0.55000,0.90000,1.00000,No
 WindowMaterial:Gas,AIR 6MM,Air,6.300E-003
 WindowMaterial:Glazing,CLEAR 6MM,SpectralAverage,,6.00000E-003,0.77500,7.10000E-002,7.10000E-002,0.88100,8.00000E-002,8.00000E-002,0.00000,0.84000,0.84000,0.90000,1.00000,No
 WindowConstruction,WINDOW_U_0.38_SHGC_0.30,73,3,VerySmooth,2.267,0.300,0.191,0.271
 WindowMaterial:Glazing,REF B CLEAR HI 6MM,SpectralAverage,,6.00000E-003,0.24000,0.16000,0.32000,0.30000,0.16000,0.29000,0.00000,0.84000,0.60000,0.90000,1.00000,No
 WindowMaterial:Gas,ARGON 13MM,Argon,1.270E-002
 WindowMaterial:Glazing,CLEAR 6MM,SpectralAverage,,6.00000E-003,0.77500,7.10000E-002,7.10000E-002,0.88100,8.00000E-002,8.00000E-002,0.00000,0.84000,0.84000,0.90000,1.00000,No
 WindowConstruction,WINDOW_U_0.36_SHGC_0.35,74,3,VerySmooth,2.272,0.313,0.208,0.408
 WindowMaterial:Glazing,LOE SPEC SEL TINT 6MM,SpectralAverage,,6.00000E-003,0.26000,0.14000,0.41000,0.46000,6.00000E-002,4.00000E-002,0.00000,0.84000,3.00000E-002,0.90000,1.00000,No
 WindowMaterial:Gas,AIR 6MM,Air,6.300E-003
 WindowMaterial:Glazing,CLEAR 6MM,SpectralAverage,,6.00000E-003,0.77500,7.10000E-002,7.10000E-002,0.88100,8.00000E-002,8.00000E-002,0.00000,0.84000,0.84000,0.90000,1.00000,No
 WindowConstruction,WINDOW_U_0.30_SHGC_0.40,75,3,VerySmooth,1.761,0.380,0.284,0.444
 WindowMaterial:Glazing,LOE TINT 6MM,SpectralAverage,,6.00000E-003,0.36000,9.30000E-002,0.20000,0.50000,3.50000E-002,5.40000E-002,0.00000,0.84000,0.10000,0.90000,1.00000,No
 WindowMaterial:Gas,AIR 13MM,Air,1.270E-002
 WindowMaterial:Glazing,CLEAR 6MM,SpectralAverage,,6.00000E-003,0.77500,7.10000E-002,7.10000E-002,0.88100,8.00000E-002,8.00000E-002,0.00000,0.84000,0.84000,0.90000,1.00000,No
 WindowConstruction,WINDOW_U_0.45_SHGC_0.27,76,3,VerySmooth,2.417,0.260,0.146,0.293
 WindowMaterial:Glazing,GLASS_12116_LAYERAVG,SpectralAverage,,4.75000E-003,0.17187,0.10946,0.21999,0.32277,0.18260,8.16540E-002,0.00000,0.84000,0.53827,1.00035,1.00000,No
 WindowMaterial:Gas,AIR 13MM,Air,1.270E-002
 WindowMaterial:Glazing,GLASS_102_LAYERAVG,SpectralAverage,,3.04800E-003,0.83385,7.47638E-002,7.48545E-002,0.89926,8.25630E-002,8.25640E-002,0.00000,0.84000,0.84000,1.00000,1.00000,No
 WindowConstruction,WINDOW_U_0.39_SHGC_0.36,77,3,VerySmooth,2.371,0.397,0.284,0.444
 WindowMaterial:Glazing,LOE TINT 6MM,SpectralAverage,,6.00000E-003,0.36000,9.30000E-002,0.20000,0.50000,3.50000E-002,5.40000E-002,0.00000,0.84000,0.10000,0.90000,1.00000,No
 WindowMaterial:Gas,AIR 6MM,Air,6.300E-003
 WindowMaterial:Glazing,CLEAR 6MM,SpectralAverage,,6.00000E-003,0.77500,7.10000E-002,7.10000E-002,0.88100,8.00000E-002,8.00000E-002,0.00000,0.84000,0.84000,0.90000,1.00000,No
 WindowConstruction,WINDOW_U_1.98_SHGC_0.36,78,1,VerySmooth,5.067,0.400,0.241,0.301
 WindowMaterial:Glazing,REF B CLEAR HI 6MM,SpectralAverage,,6.00000E-003,0.24000,0.16000,0.32000,0.30000,0.16000,0.29000,0.00000,0.84000,0.60000,0.90000,1.00000,No
 WindowConstruction,WINDOW_U_1.17_SHGC_0.39,79,1,VerySmooth,5.067,0.400,0.241,0.301
 WindowMaterial:Glazing,REF B CLEAR HI 6MM,SpectralAverage,,6.00000E-003,0.24000,0.16000,0.32000,0.30000,0.16000,0.29000,0.00000,0.84000,0.60000,0.90000,1.00000,No
 WindowConstruction,WINDOW_U_1.98_SHGC_0.61,80,1,VerySmooth,5.778,0.623,0.487,0.749
 WindowMaterial:Glazing,GREEN 6MM,SpectralAverage,,6.00000E-003,0.48700,5.60000E-002,5.60000E-002,0.74900,7.00000E-002,7.00000E-002,0.00000,0.84000,0.84000,0.90000,1.00000,No
 WindowConstruction,WINDOW_U_1.17_SHGC_0.49,81,1,VerySmooth,5.720,0.506,0.431,0.335
 WindowMaterial:Glazing,REF D CLEAR 6MM,SpectralAverage,,6.00000E-003,0.42900,0.30800,0.37900,0.33400,0.45300,0.50500,0.00000,0.84000,0.82000,0.90000,1.00000,No
 WindowConstruction,WINDOW_U_1.17_SHGC_0.68,82,1,VerySmooth,5.894,0.722,0.635,0.822
 WindowMaterial:Glazing,GREEN 3MM,SpectralAverage,,3.00000E-003,0.63500,6.30000E-002,6.30000E-002,0.82200,7.50000E-002,7.50000E-002,0.00000,0.84000,0.84000,0.90000,1.00000,No
 WindowConstruction,WINDOW_U_0.98_SHGC_0.45,83,1,VerySmooth,5.067,0.400,0.241,0.301
 WindowMaterial:Glazing,REF B CLEAR HI 6MM,SpectralAverage,,6.00000E-003,0.24000,0.16000,0.32000,0.30000,0.16000,0.29000,0.00000,0.84000,0.60000,0.90000,1.00000,No
 WindowConstruction,WINDOW_U_0.98_SHGC_0.68,84,1,VerySmooth,5.067,0.400,0.241,0.301
 WindowMaterial:Glazing,REF B CLEAR HI 6MM,SpectralAverage,,6.00000E-003,0.24000,0.16000,0.32000,0.30000,0.16000,0.29000,0.00000,0.84000,0.60000,0.90000,1.00000,No
 WindowConstruction,WINDOW_U_0.88_SHGC_0.16,85,1,VerySmooth,4.440,0.202,6.623E-002,8.028E-002
 WindowMaterial:Glazing,REF A CLEAR LO 6MM,SpectralAverage,,6.00000E-003,6.60000E-002,0.34100,0.49300,8.00000E-002,0.41000,0.37000,0.00000,0.84000,0.40000,0.90000,1.00000,No
 WindowConstruction,WINDOW_U_0.88_SHGC_0.27,86,1,VerySmooth,5.778,0.306,9.905E-002,0.155
 WindowMaterial:Glazing,ECREF-1 COLORED 6MM,SpectralAverage,,6.00000E-003,9.90000E-002,0.21900,0.21900,0.15500,7.30000E-002,7.30000E-002,0.00000,0.84000,0.84000,0.90000,1.00000,No
 WindowConstruction,WINDOW_U_0.52_SHGC_0.22,87,3,VerySmooth,2.872,0.241,0.120,0.182
 WindowMaterial:Glazing,REF B CLEAR LO 6MM,SpectralAverage,,6.00000E-003,0.15000,0.22000,0.38000,0.20000,0.23000,0.33000,0.00000,0.84000,0.58000,0.90000,1.00000,No
 WindowMaterial:Gas,AIR 6MM,Air,6.300E-003
 WindowMaterial:Glazing,CLEAR 6MM,SpectralAverage,,6.00000E-003,0.77500,7.10000E-002,7.10000E-002,0.88100,8.00000E-002,8.00000E-002,0.00000,0.84000,0.84000,0.90000,1.00000,No
 WindowConstruction,WINDOW_U_0.44_SHGC_0.20,88,3,VerySmooth,2.447,0.248,0.119,0.163
 WindowMaterial:Glazing,REF B TINT HI 6MM,SpectralAverage,,6.00000E-003,0.15000,9.00000E-002,0.33000,0.18000,8.00000E-002,0.28000,0.00000,0.84000,0.60000,0.90000,1.00000,No
 WindowMaterial:Gas,AIR 13MM,Air,1.270E-002
 WindowMaterial:Glazing,CLEAR 6MM,SpectralAverage,,6.00000E-003,0.77500,7.10000E-002,7.10000E-002,0.88100,8.00000E-002,8.00000E-002,0.00000,0.84000,0.84000,0.90000,1.00000,No
 WindowConstruction,WINDOW_U_0.39_SHGC_0.38,89,1,VerySmooth,2.193,0.395,0.375,0.530
 WindowMaterial:Glazing,THEORETICAL GLASS 297,SpectralAverage,,3.00000E-003,0.37504,0.57496,0.57496,0.52970,0.42030,0.42030,0.00000,0.90000,0.90000,1.03561E-002,1.00000,No
 WindowConstruction,WINDOW_U_0.39_SHGC_0.32,90,1,VerySmooth,2.194,0.336,0.315,0.480
 WindowMaterial:Glazing,THEORETICAL GLASS 347,SpectralAverage,,3.00000E-003,0.31586,0.63414,0.63414,0.47991,0.47009,0.47009,0.00000,0.90000,0.90000,1.03580E-002,1.00000,No
 WindowConstruction,WINDOW_U_0.75_SHGC_0.72,91,1,VerySmooth,3.779,0.720,0.680,0.811
 WindowMaterial:Glazing,PYR B CLEAR 6MM,SpectralAverage,,6.00000E-003,0.68000,9.00000E-002,0.10000,0.81000,0.11000,0.12000,0.00000,0.84000,0.20000,0.90000,1.00000,No
 WindowConstruction,WINDOW_U_0.67_SHGC_0.77,92,1,VerySmooth,3.835,0.768,0.741,0.821
 WindowMaterial:Glazing,PYR B CLEAR 3MM,SpectralAverage,,3.00000E-003,0.74000,9.00000E-002,0.10000,0.82000,0.11000,0.12000,0.00000,0.84000,0.20000,0.90000,1.00000,No
 WindowConstruction,WINDOW_U_0.56_SHGC_0.76,93,3,VerySmooth,3.122,0.762,0.705,0.812
 WindowMaterial:Glazing,CLEAR 3MM,SpectralAverage,,3.00000E-003,0.83700,7.50000E-002,7.50000E-002,0.89800,8.10000E-002,8.10000E-002,0.00000,0.84000,0.84000,0.90000,1.00000,No
 WindowMaterial:Gas,AIR 6MM,Air,6.300E-003
 WindowMaterial:Glazing,CLEAR 3MM,SpectralAverage,,3.00000E-003,0.83700,7.50000E-002,7.50000E-002,0.89800,8.10000E-002,8.10000E-002,0.00000,0.84000,0.84000,0.90000,1.00000,No
 WindowConstruction,WINDOW_U_0.40_SHGC_0.43,94,3,VerySmooth,2.288,0.434,0.359,0.691
 WindowMaterial:Glazing,LOE SPEC SEL CLEAR 3MM,SpectralAverage,,3.00000E-003,0.45000,0.34000,0.37000,0.78000,7.00000E-002,6.00000E-002,0.00000,0.84000,3.00000E-002,0.90000,1.00000,No
 WindowMaterial:Gas,AIR 6MM,Air,6.300E-003
 WindowMaterial:Glazing,CLEAR 6MM,SpectralAverage,,6.00000E-003,0.77500,7.10000E-002,7.10000E-002,0.88100,8.00000E-002,8.00000E-002,0.00000,0.84000,0.84000,0.90000,1.00000,No
 WindowConstruction,WINDOW_U_0.40_SHGC_0.45,95,3,VerySmooth,2.262,0.469,0.364,0.657
 WindowMaterial:Glazing,ECABS-2 BLEACHED 6MM,SpectralAverage,,6.00000E-003,0.81400,8.60000E-002,8.60000E-002,0.84700,9.90000E-002,9.90000E-002,0.00000,0.84000,0.10000,0.90000,1.00000,No
 WindowMaterial:Gas,AIR 6MM,Air,6.300E-003
 WindowMaterial:Glazing,LOE SPEC SEL CLEAR 6MM REV,SpectralAverage,,6.00000E-003,0.43000,0.42000,0.30000,0.77000,6.00000E-002,7.00000E-002,0.00000,3.00000E-002,0.84000,0.90000,1.00000,No
 WindowConstruction,WINDOW_U_0.60_SHGC_0.25,96,3,VerySmooth,3.511,0.227,7.258E-002,0.284
 WindowMaterial:Glazing,GLASS_2175_LAYERAVG,SpectralAverage,,8.60000E-003,0.16776,0.21761,0.43798,0.41604,7.87290E-002,0.10654,0.00000,0.84000,0.84000,1.00000,1.00000,No
 WindowMaterial:Gas,GAP_1_W_0_0025,Air,2.500E-003
 WindowMaterial:Glazing,GLASS_2022F_LAYERAVG,SpectralAverage,,3.90000E-003,0.35590,0.39409,0.26565,0.67769,4.27340E-002,5.54700E-002,0.00000,4.60000E-002,0.84000,1.00000,1.00000,No
 WindowConstruction,WINDOW_U_0.55_SHGC_0.25,97,3,VerySmooth,3.191,0.218,7.258E-002,0.284
 WindowMaterial:Glazing,GLASS_2175_LAYERAVG,SpectralAverage,,8.60000E-003,0.16776,0.21761,0.43798,0.41604,7.87290E-002,0.10654,0.00000,0.84000,0.84000,1.00000,1.00000,No
 WindowMaterial:Gas,GAP_1_W_0_0032,Air,3.200E-003
 WindowMaterial:Glazing,GLASS_2022F_LAYERAVG,SpectralAverage,,3.90000E-003,0.35590,0.39409,0.26565,0.67769,4.27340E-002,5.54700E-002,0.00000,4.60000E-002,0.84000,1.00000,1.00000,No
 WindowConstruction,WINDOW_U_0.50_SHGC_0.25,98,3,VerySmooth,2.829,0.208,7.258E-002,0.284
 WindowMaterial:Glazing,GLASS_2175_LAYERAVG,SpectralAverage,,8.60000E-003,0.16776,0.21761,0.43798,0.41604,7.87290E-002,0.10654,0.00000,0.84000,0.84000,1.00000,1.00000,No
 WindowMaterial:Gas,GAP_1_W_0_0042,Air,4.200E-003
 WindowMaterial:Glazing,GLASS_2022F_LAYERAVG,SpectralAverage,,3.90000E-003,0.35590,0.39409,0.26565,0.67769,4.27340E-002,5.54700E-002,0.00000,4.60000E-002,0.84000,1.00000,1.00000,No
 WindowConstruction,WINDOW_U_0.47_SHGC_0.40,99,3,VerySmooth,2.810,0.360,0.227,0.471
 WindowMaterial:Glazing,GLASS_2052_LAYERAVG,SpectralAverage,,8.37000E-003,0.50777,5.42281E-002,5.44931E-002,0.58683,5.80500E-002,5.83970E-002,0.00000,0.84000,0.84000,1.00000,1.00000,No
 WindowMaterial:Gas,GAP_1_W_0_0043,Air,4.300E-003
 WindowMaterial:Glazing,GLASS_2010F_LAYERAVG,SpectralAverage,,2.21000E-003,0.43429,0.41837,0.34107,0.79758,4.35770E-002,5.60310E-002,0.00000,4.22740E-002,0.84000,1.00000,1.00000,No
 WindowConstruction,WINDOW_U_0.75_SHGC_0.35,100,3,VerySmooth,3.906,0.353,0.194,0.452
 WindowMaterial:Glazing,GLASS_2052_LAYERAVG,SpectralAverage,,8.37000E-003,0.50777,5.42281E-002,5.44931E-002,0.58683,5.80500E-002,5.83970E-002,0.00000,0.84000,0.84000,1.00000,1.00000,No
 WindowMaterial:Gas,GAP_1_W_0_0018,Air,1.800E-003
 WindowMaterial:Glazing,GLASS_2027F_LAYERAVG,SpectralAverage,,4.00000E-003,0.36974,0.47007,0.34094,0.76522,5.46000E-002,7.37410E-002,0.00000,3.67500E-002,0.84000,1.00000,1.00000,No
 WindowConstruction,WINDOW_U_0.65_SHGC_0.35,101,3,VerySmooth,3.559,0.347,0.194,0.452
 WindowMaterial:Glazing,GLASS_2052_LAYERAVG,SpectralAverage,,8.37000E-003,0.50777,5.42281E-002,5.44931E-002,0.58683,5.80500E-002,5.83970E-002,0.00000,0.84000,0.84000,1.00000,1.00000,No
 WindowMaterial:Gas,GAP_1_W_0_0024,Air,2.400E-003
 WindowMaterial:Glazing,GLASS_2027F_LAYERAVG,SpectralAverage,,4.00000E-003,0.36974,0.47007,0.34094,0.76522,5.46000E-002,7.37410E-002,0.00000,3.67500E-002,0.84000,1.00000,1.00000,No
 WindowConstruction,WINDOW_U_0.55_SHGC_0.35,102,3,VerySmooth,2.956,0.335,0.194,0.452
 WindowMaterial:Glazing,GLASS_2052_LAYERAVG,SpectralAverage,,8.37000E-003,0.50777,5.42281E-002,5.44931E-002,0.58683,5.80500E-002,5.83970E-002,0.00000,0.84000,0.84000,1.00000,1.00000,No
 WindowMaterial:Gas,GAP_1_W_0_0038,Air,3.800E-003
 WindowMaterial:Glazing,GLASS_2027F_LAYERAVG,SpectralAverage,,4.00000E-003,0.36974,0.47007,0.34094,0.76522,5.46000E-002,7.37410E-002,0.00000,3.67500E-002,0.84000,1.00000,1.00000,No
 WindowConstruction,WINDOW_U_0.50_SHGC_0.40,103,3,VerySmooth,2.956,0.335,0.194,0.452
 WindowMaterial:Glazing,GLASS_2052_LAYERAVG,SpectralAverage,,8.37000E-003,0.50777,5.42281E-002,5.44931E-002,0.58683,5.80500E-002,5.83970E-002,0.00000,0.84000,0.84000,1.00000,1.00000,No
 WindowMaterial:Gas,GAP_1_W_0_0038,Air,3.800E-003
 WindowMaterial:Glazing,GLASS_2027F_LAYERAVG,SpectralAverage,,4.00000E-003,0.36974,0.47007,0.34094,0.76522,5.46000E-002,7.37410E-002,0.00000,3.67500E-002,0.84000,1.00000,1.00000,No
 WindowConstruction,WINDOW_U_1.16_SHGC_0.25,104,1,VerySmooth,5.778,0.306,9.905E-002,0.155
 WindowMaterial:Glazing,ECREF-1 COLORED 6MM,SpectralAverage,,6.00000E-003,9.90000E-002,0.21900,0.21900,0.15500,7.30000E-002,7.30000E-002,0.00000,0.84000,0.84000,0.90000,1.00000,No
 WindowConstruction,WINDOW_U_1.08_SHGC_0.25,105,1,VerySmooth,5.778,0.306,9.905E-002,0.155
 WindowMaterial:Glazing,ECREF-1 COLORED 6MM,SpectralAverage,,6.00000E-003,9.90000E-002,0.21900,0.21900,0.15500,7.30000E-002,7.30000E-002,0.00000,0.84000,0.84000,0.90000,1.00000,No
 WindowConstruction,WINDOW_U_0.29_SHGC_0.45,106,3,VerySmooth,1.614,0.426,0.322,0.634
 WindowMaterial:Glazing,ECREF-2 BLEACHED 6MM,SpectralAverage,,6.00000E-003,0.69400,0.16800,0.16800,0.81800,0.11000,0.11000,0.00000,0.84000,0.10000,0.90000,1.00000,No
 WindowMaterial:Gas,AIR 13MM,Air,1.270E-002
 WindowMaterial:Glazing,LOE SPEC SEL CLEAR 6MM REV,SpectralAverage,,6.00000E-003,0.43000,0.42000,0.30000,0.77000,6.00000E-002,7.00000E-002,0.00000,3.00000E-002,0.84000,0.90000,1.00000,No
 WindowConstruction,WINDOW_U_1.60_SHGC_0.40,107,1,VerySmooth,5.067,0.400,0.241,0.301
 WindowMaterial:Glazing,REF B CLEAR HI 6MM,SpectralAverage,,6.00000E-003,0.24000,0.16000,0.32000,0.30000,0.16000,0.29000,0.00000,0.84000,0.60000,0.90000,1.00000,No
 WindowConstruction,WINDOW_U_1.05_SHGC_0.40,108,1,VerySmooth,5.067,0.400,0.241,0.301
 WindowMaterial:Glazing,REF B CLEAR HI 6MM,SpectralAverage,,6.00000E-003,0.24000,0.16000,0.32000,0.30000,0.16000,0.29000,0.00000,0.84000,0.60000,0.90000,1.00000,No
 WindowConstruction,WINDOW_U_0.90_SHGC_0.40,109,1,VerySmooth,5.067,0.400,0.241,0.301
 WindowMaterial:Glazing,REF B CLEAR HI 6MM,SpectralAverage,,6.00000E-003,0.24000,0.16000,0.32000,0.30000,0.16000,0.29000,0.00000,0.84000,0.60000,0.90000,1.00000,No
 WindowConstruction,WINDOW_U_0.9_SHGC_0.6,110,1,VerySmooth,5.067,0.400,0.241,0.301
 WindowMaterial:Glazing,REF B CLEAR HI 6MM,SpectralAverage,,6.00000E-003,0.24000,0.16000,0.32000,0.30000,0.16000,0.29000,0.00000,0.84000,0.60000,0.90000,1.00000,No
 WindowConstruction,WINDOW_U_0.75_SHGC_0.6,111,3,VerySmooth,3.122,0.614,0.526,0.551
 WindowMaterial:Glazing,GREY 3MM,SpectralAverage,,3.00000E-003,0.62600,6.10000E-002,6.10000E-002,0.61100,6.10000E-002,6.10000E-002,0.00000,0.84000,0.84000,0.90000,1.00000,No
 WindowMaterial:Gas,AIR 6MM,Air,6.300E-003
 WindowMaterial:Glazing,CLEAR 3MM,SpectralAverage,,3.00000E-003,0.83700,7.50000E-002,7.50000E-002,0.89800,8.10000E-002,8.10000E-002,0.00000,0.84000,0.84000,0.90000,1.00000,No
 WindowConstruction,WINDOW_U_0.85_SHGC_0.78,112,1,VerySmooth,4.513,0.781,0.750,0.850
 WindowMaterial:Glazing,PYR A CLEAR 3MM,SpectralAverage,,3.00000E-003,0.75000,0.10000,0.10000,0.85000,0.12000,0.12000,0.00000,0.84000,0.40000,0.90000,1.00000,No
 WindowConstruction,WINDOW_U_1.30_SHGC_0.68,113,1,VerySmooth,5.894,0.722,0.635,0.822
 WindowMaterial:Glazing,GREEN 3MM,SpectralAverage,,3.00000E-003,0.63500,6.30000E-002,6.30000E-002,0.82200,7.50000E-002,7.50000E-002,0.00000,0.84000,0.84000,0.90000,1.00000,No
 WindowConstruction,WINDOW_U_1.15_SHGC_0.68,114,1,VerySmooth,5.894,0.722,0.635,0.822
 WindowMaterial:Glazing,GREEN 3MM,SpectralAverage,,3.00000E-003,0.63500,6.30000E-002,6.30000E-002,0.82200,7.50000E-002,7.50000E-002,0.00000,0.84000,0.84000,0.90000,1.00000,No
 WindowConstruction,WINDOW_U_1.80_SHGC_0.36,115,1,VerySmooth,5.067,0.400,0.241,0.301
 WindowMaterial:Glazing,REF B CLEAR HI 6MM,SpectralAverage,,6.00000E-003,0.24000,0.16000,0.32000,0.30000,0.16000,0.29000,0.00000,0.84000,0.60000,0.90000,1.00000,No
 WindowConstruction,WINDOW_U_1.70_SHGC_0.36,116,1,VerySmooth,5.067,0.400,0.241,0.301
 WindowMaterial:Glazing,REF B CLEAR HI 6MM,SpectralAverage,,6.00000E-003,0.24000,0.16000,0.32000,0.30000,0.16000,0.29000,0.00000,0.84000,0.60000,0.90000,1.00000,No
 WindowConstruction,WINDOW_U_0.37_SHGC_0.45,117,3,VerySmooth,2.067,0.449,0.359,0.509
 WindowMaterial:Glazing,GLASS_4321_LAYERAVG,SpectralAverage,,6.18000E-003,0.42595,7.42419E-002,9.99417E-002,0.55965,7.27260E-002,9.48190E-002,0.00000,0.84000,0.27900,0.81400,1.00000,No
 WindowMaterial:Gas,GAP_1_W_0_0127,Air,1.270E-002
 WindowMaterial:Glazing,GLASS_102_LAYERAVG,SpectralAverage,,3.04800E-003,0.83385,7.47638E-002,7.48545E-002,0.89926,8.25630E-002,8.25640E-002,0.00000,0.84000,0.84000,1.00000,1.00000,No
 WindowConstruction,WINDOW_U_0.41_SHGC_0.38,118,3,VerySmooth,2.245,0.365,0.298,0.452
 WindowMaterial:Glazing,GLASS_8652_LAYERAVG,SpectralAverage,,3.05900E-003,0.34369,0.29899,0.46211,0.48794,0.20945,0.30683,0.00000,0.84000,0.39000,0.96200,1.00000,No
 WindowMaterial:Gas,GAP_1_W_0_0127,Air,1.270E-002
 WindowMaterial:Glazing,GLASS_102_LAYERAVG,SpectralAverage,,3.04800E-003,0.83385,7.47638E-002,7.48545E-002,0.89926,8.25630E-002,8.25640E-002,0.00000,0.84000,0.84000,1.00000,1.00000,No
 WindowConstruction,WINDOW_U_0.40_SHGC_0.4,119,3,VerySmooth,2.245,0.365,0.298,0.452
 WindowMaterial:Glazing,GLASS_8652_LAYERAVG,SpectralAverage,,3.05900E-003,0.34369,0.29899,0.46211,0.48794,0.20945,0.30683,0.00000,0.84000,0.39000,0.96200,1.00000,No
 WindowMaterial:Gas,GAP_1_W_0_0127,Air,1.270E-002
 WindowMaterial:Glazing,GLASS_102_LAYERAVG,SpectralAverage,,3.04800E-003,0.83385,7.47638E-002,7.48545E-002,0.89926,8.25630E-002,8.25640E-002,0.00000,0.84000,0.84000,1.00000,1.00000,No
 WindowConstruction,WINDOW_U_0.40_SHGC_0.38,120,3,VerySmooth,2.245,0.365,0.298,0.452
 WindowMaterial:Glazing,GLASS_8652_LAYERAVG,SpectralAverage,,3.05900E-003,0.34369,0.29899,0.46211,0.48794,0.20945,0.30683,0.00000,0.84000,0.39000,0.96200,1.00000,No
 WindowMaterial:Gas,GAP_1_W_0_0127,Air,1.270E-002
 WindowMaterial:Glazing,GLASS_102_LAYERAVG,SpectralAverage,,3.04800E-003,0.83385,7.47638E-002,7.48545E-002,0.89926,8.25630E-002,8.25640E-002,0.00000,0.84000,0.84000,1.00000,1.00000,No
 WindowConstruction,WINDOW_U_0.39_SHGC_0.40,121,3,VerySmooth,2.216,0.371,0.304,0.471
 WindowMaterial:Glazing,GLASS_282_LAYERAVG,SpectralAverage,,3.25100E-003,0.35257,0.29562,0.40581,0.51005,0.23746,0.27044,0.00000,0.84000,0.37000,0.94000,1.00000,No
 WindowMaterial:Gas,GAP_1_W_0_0127,Air,1.270E-002
 WindowMaterial:Glazing,GLASS_102_LAYERAVG,SpectralAverage,,3.04800E-003,0.83385,7.47638E-002,7.48545E-002,0.89926,8.25630E-002,8.25640E-002,0.00000,0.84000,0.84000,1.00000,1.00000,No
 WindowConstruction,WINDOW_U_0.45_SHGC_0.38,122,3,VerySmooth,2.570,0.376,0.291,0.494
 WindowMaterial:Glazing,GLASS_2532_LAYERAVG,SpectralAverage,,3.06000E-003,0.34082,0.22683,0.27323,0.54381,7.66000E-002,7.94480E-002,0.00000,0.84000,0.67600,0.93300,1.00000,No
 WindowMaterial:Gas,GAP_1_W_0_0127,Air,1.270E-002
 WindowMaterial:Glazing,GLASS_102_LAYERAVG,SpectralAverage,,3.04800E-003,0.83385,7.47638E-002,7.48545E-002,0.89926,8.25630E-002,8.25640E-002,0.00000,0.84000,0.84000,1.00000,1.00000,No
 WindowConstruction,WINDOW_U_0.44_SHGC_0.40,123,3,VerySmooth,2.499,0.406,0.314,0.643
 WindowMaterial:Glazing,GLASS_9731_LAYERAVG,SpectralAverage,,1.24800E-002,0.36942,0.20794,0.20340,0.71009,7.11150E-002,7.06960E-002,0.00000,0.84000,0.84000,0.81500,1.00000,No
 WindowMaterial:Glazing,GLASS_102_LAYERAVG,SpectralAverage,,3.04800E-003,0.83385,7.47638E-002,7.48545E-002,0.89926,8.25630E-002,8.25640E-002,0.00000,0.84000,0.84000,1.00000,1.00000,No
 WindowConstruction,WINDOW_U_0.38_SHGC_0.36,124,3,VerySmooth,2.140,0.365,0.301,0.452
 WindowMaterial:Glazing,GLASS_2531_LAYERAVG,SpectralAverage,,3.06000E-003,0.35056,0.31983,0.36177,0.49092,0.25084,0.23293,0.00000,0.84000,0.45400,0.93400,1.00000,No
 WindowMaterial:Glazing,GLASS_102_LAYERAVG,SpectralAverage,,3.04800E-003,0.83385,7.47638E-002,7.48545E-002,0.89926,8.25630E-002,8.25640E-002,0.00000,0.84000,0.84000,1.00000,1.00000,No
 WindowConstruction,WINDOW_U_0.38_SHGC_0.41,125,3,VerySmooth,2.113,0.407,0.315,0.547
 WindowMaterial:Glazing,GLASS_4313_LAYERAVG,SpectralAverage,,3.85000E-003,0.37349,7.11426E-002,9.94400E-002,0.60130,7.72250E-002,9.69920E-002,0.00000,0.84000,0.29800,1.00000,1.00000,No
 WindowMaterial:Gas,GAP_1_W_0_0127,Air,1.270E-002
 WindowMaterial:Glazing,GLASS_102_LAYERAVG,SpectralAverage,,3.04800E-003,0.83385,7.47638E-002,7.48545E-002,0.89926,8.25630E-002,8.25640E-002,0.00000,0.84000,0.84000,1.00000,1.00000,No
 WindowConstruction,WINDOW_U_0.51_SHGC_0.25,126,3,VerySmooth,2.898,0.241,0.142,0.312
 WindowMaterial:Glazing,GLASS_1576_LAYERAVG,SpectralAverage,,3.05800E-003,0.16764,0.30347,0.18256,0.34199,0.12889,0.12808,0.00000,0.84000,0.86800,0.84600,1.00000,No
 WindowMaterial:Gas,GAP_1_W_0_0090,Air,9.000E-003
 WindowMaterial:Glazing,GLASS_102_LAYERAVG,SpectralAverage,,3.04800E-003,0.83385,7.47638E-002,7.48545E-002,0.89926,8.25630E-002,8.25640E-002,0.00000,0.84000,0.84000,1.00000,1.00000,No
 WindowConstruction,WINDOW_U_0.54_SHGC_0.25,127,3,VerySmooth,3.064,0.244,0.142,0.312
 WindowMaterial:Glazing,GLASS_1576_LAYERAVG,SpectralAverage,,3.05800E-003,0.16764,0.30347,0.18256,0.34199,0.12889,0.12808,0.00000,0.84000,0.86800,0.84600,1.00000,No
 WindowMaterial:Gas,GAP_1_W_0_0070,Air,7.000E-003
 WindowMaterial:Glazing,GLASS_102_LAYERAVG,SpectralAverage,,3.04800E-003,0.83385,7.47638E-002,7.48545E-002,0.89926,8.25630E-002,8.25640E-002,0.00000,0.84000,0.84000,1.00000,1.00000,No
 WindowConstruction,WINDOW_U_0.56_SHGC_0.25,128,3,VerySmooth,3.177,0.247,0.142,0.312
 WindowMaterial:Glazing,GLASS_1576_LAYERAVG,SpectralAverage,,3.05800E-003,0.16764,0.30347,0.18256,0.34199,0.12889,0.12808,0.00000,0.84000,0.86800,0.84600,1.00000,No
 WindowMaterial:Gas,GAP_1_W_0_0060,Air,6.000E-003
 WindowMaterial:Glazing,GLASS_102_LAYERAVG,SpectralAverage,,3.04800E-003,0.83385,7.47638E-002,7.48545E-002,0.89926,8.25630E-002,8.25640E-002,0.00000,0.84000,0.84000,1.00000,1.00000,No
 WindowConstruction,WINDOW_U_0.59_SHGC_0.25,129,3,VerySmooth,3.356,0.251,0.142,0.312
 WindowMaterial:Glazing,GLASS_1576_LAYERAVG,SpectralAverage,,3.05800E-003,0.16764,0.30347,0.18256,0.34199,0.12889,0.12808,0.00000,0.84000,0.86800,0.84600,1.00000,No
 WindowMaterial:Gas,GAP_1_W_0_0048,Air,4.800E-003
 WindowMaterial:Glazing,GLASS_102_LAYERAVG,SpectralAverage,,3.04800E-003,0.83385,7.47638E-002,7.48545E-002,0.89926,8.25630E-002,8.25640E-002,0.00000,0.84000,0.84000,1.00000,1.00000,No
 WindowConstruction,WINDOW_U_0.58_SHGC_0.25,130,3,VerySmooth,3.290,0.249,0.142,0.312
 WindowMaterial:Glazing,GLASS_1576_LAYERAVG,SpectralAverage,,3.05800E-003,0.16764,0.30347,0.18256,0.34199,0.12889,0.12808,0.00000,0.84000,0.86800,0.84600,1.00000,No
 WindowMaterial:Gas,GAP_1_W_0_0052,Air,5.200E-003
 WindowMaterial:Glazing,GLASS_102_LAYERAVG,SpectralAverage,,3.04800E-003,0.83385,7.47638E-002,7.48545E-002,0.89926,8.25630E-002,8.25640E-002,0.00000,0.84000,0.84000,1.00000,1.00000,No
! <Shadowing/Sun Position Calculations Annual Simulations>, Calculation Method, Value {days}, Allowable Number Figures in Shadow Overlap {}, Polygon Clipping Algorithm, Sky Diffuse Modeling Algorithm, External Shading Calculation Method, Output External Shading Calculation Results, Disable Self-Shading Within Shading Zone Groups, Disable Self-Shading From Shading Zone Groups to Other Zones
Shadowing/Sun Position Calculations Annual Simulations,AverageOverDaysInFrequency,30,15000,SutherlandHodgman,SimpleSkyDiffuseModeling,InternalCalculation,No,No,No
! <Zone/Window Adjacency Daylighting Counts>, Zone Name, Number of Exterior Windows, Number of Exterior Windows in Adjacent Zones
Zone/Window Adjacency Daylighting Counts, PERIMETER_TOP_ZN_3,1,0
Zone/Window Adjacency Daylighting Counts, PERIMETER_TOP_ZN_2,1,0
Zone/Window Adjacency Daylighting Counts, PERIMETER_TOP_ZN_1,1,0
Zone/Window Adjacency Daylighting Counts, PERIMETER_TOP_ZN_4,1,0
Zone/Window Adjacency Daylighting Counts, PERIMETER_BOT_ZN_3,3,0
Zone/Window Adjacency Daylighting Counts, PERIMETER_BOT_ZN_2,2,0
Zone/Window Adjacency Daylighting Counts, PERIMETER_BOT_ZN_1,3,0
Zone/Window Adjacency Daylighting Counts, PERIMETER_BOT_ZN_4,2,0
Zone/Window Adjacency Daylighting Counts, PERIMETER_MID_ZN_3,1,0
Zone/Window Adjacency Daylighting Counts, PERIMETER_MID_ZN_2,1,0
Zone/Window Adjacency Daylighting Counts, PERIMETER_MID_ZN_1,1,0
Zone/Window Adjacency Daylighting Counts, PERIMETER_MID_ZN_4,1,0
! <Zone/Window Adjacency Daylighting Matrix>, Zone Name, Number of Adjacent Zones with Windows,Adjacent Zone Names - 1st 100 (max)
Zone/Window Adjacency Daylighting Matrix, PERIMETER_TOP_ZN_3,0
Zone/Window Adjacency Daylighting Matrix, PERIMETER_TOP_ZN_2,0
Zone/Window Adjacency Daylighting Matrix, PERIMETER_TOP_ZN_1,0
Zone/Window Adjacency Daylighting Matrix, PERIMETER_TOP_ZN_4,0
Zone/Window Adjacency Daylighting Matrix, PERIMETER_BOT_ZN_3,0
Zone/Window Adjacency Daylighting Matrix, PERIMETER_BOT_ZN_2,0
Zone/Window Adjacency Daylighting Matrix, PERIMETER_BOT_ZN_1,0
Zone/Window Adjacency Daylighting Matrix, PERIMETER_BOT_ZN_4,0
Zone/Window Adjacency Daylighting Matrix, PERIMETER_MID_ZN_3,0
Zone/Window Adjacency Daylighting Matrix, PERIMETER_MID_ZN_2,0
Zone/Window Adjacency Daylighting Matrix, PERIMETER_MID_ZN_1,0
Zone/Window Adjacency Daylighting Matrix, PERIMETER_MID_ZN_4,0
! <Water Heater Information>,Type,Name,Volume {m3},Maximum Capacity {W},Standard Rated Recovery Efficiency, Standard Rated Energy Factor
! <Surface Convection Parameters>, Surface Name, Outside Model Assignment, Outside Area [m2], Outside Perimeter [m], Outside Height [m], Inside Model Assignment, Inside Height [m], Inside Perimeter Envelope [m], Inside Hydraulic Diameter [m], Window Wall Ratio, Window Location, Near Radiant {Yes/No}, Has Active HVAC {Yes/No}
Surface Convection Parameters,CORE_BOT_ZN_5_WALL_SOUTH,0,0.00,0.00,0.00,0,2.74,0.00,30.31,-999.00,0,No,No
Surface Convection Parameters,CORE_BOT_ZN_5_WALL_EAST,0,0.00,0.00,0.00,0,2.74,0.00,30.31,-999.00,0,No,No
Surface Convection Parameters,CORE_BOT_ZN_5_WALL_NORTH,0,0.00,0.00,0.00,0,2.74,0.00,30.31,-999.00,0,No,No
Surface Convection Parameters,CORE_BOT_ZN_5_WALL_WEST,0,0.00,0.00,0.00,0,2.74,0.00,30.31,-999.00,0,No,No
Surface Convection Parameters,CORE_BOT_ZN_5_FLOOR,0,0.00,0.00,0.00,0,2.74,0.00,30.31,-999.00,0,No,No
Surface Convection Parameters,CORE_BOT_ZN_5_CEILING,0,0.00,0.00,0.00,0,2.74,0.00,30.31,-999.00,0,No,No
Surface Convection Parameters,CORE_BOTTOM_INTERNALMASS_1,0,0.00,0.00,0.00,0,2.74,0.00,30.31,-999.00,0,No,No
Surface Convection Parameters,PERIMETER_TOP_PLENUM_WALL_NORTH,0,593.30,143.75,11.89,0,1.22,166.37,39.93,0.00,0,No,No
Surface Convection Parameters,PERIMETER_TOP_PLENUM_WALL_EAST,0,395.53,143.75,11.89,0,1.22,166.37,39.93,0.00,0,No,No
[...]
 Warmup Convergence Information,PERIMETER_TOP_ZN_3,SizingPeriod: GUANGZHOU ANN CLG 1% CONDNS DP=>MDB,0.3189589917,0.4113413356,Pass,Pass,0.2439552620,0.4037367461,Pass,Pass
 Warmup Convergence Information,PERIMETER_TOP_ZN_2,SizingPeriod: GUANGZHOU ANN CLG 1% CONDNS DP=>MDB,0.4168876825,0.5662761013,Pass,Pass,0.2413508448,0.4088419441,Pass,Pass
 Warmup Convergence Information,PERIMETER_TOP_ZN_1,SizingPeriod: GUANGZHOU ANN CLG 1% CONDNS DP=>MDB,0.3183231566,0.4106040224,Pass,Pass,0.2441342520,0.4042504569,Pass,Pass
 Warmup Convergence Information,PERIMETER_TOP_ZN_4,SizingPeriod: GUANGZHOU ANN CLG 1% CONDNS DP=>MDB,0.3925680160,0.6232867616,Pass,Pass,0.2480773762,0.4061216064,Pass,Pass
 Warmup Convergence Information,PERIMETER_BOT_ZN_3,SizingPeriod: GUANGZHOU ANN CLG 1% CONDNS DP=>MDB,0.2579180491,0.2860820529,Pass,Pass,0.2434593204,0.3923767833,Pass,Pass
 Warmup Convergence Information,PERIMETER_BOT_ZN_2,SizingPeriod: GUANGZHOU ANN CLG 1% CONDNS DP=>MDB,0.3687695195,0.4601530855,Pass,Pass,0.2346367253,0.3979759718,Pass,Pass
 Warmup Convergence Information,PERIMETER_BOT_ZN_1,SizingPeriod: GUANGZHOU ANN CLG 1% CONDNS DP=>MDB,0.2576106065,0.2872589952,Pass,Pass,0.2441287307,0.3923257644,Pass,Pass
 Warmup Convergence Information,PERIMETER_BOT_ZN_4,SizingPeriod: GUANGZHOU ANN CLG 1% CONDNS DP=>MDB,0.3356216443,0.4871862551,Pass,Pass,0.2442880147,0.3939661500,Pass,Pass
 Warmup Convergence Information,PERIMETER_MID_ZN_3,SizingPeriod: GUANGZHOU ANN CLG 1% CONDNS DP=>MDB,0.3036917997,0.3688843264,Pass,Pass,0.2621642307,0.4142760699,Pass,Pass
 Warmup Convergence Information,PERIMETER_MID_ZN_2,SizingPeriod: GUANGZHOU ANN CLG 1% CONDNS DP=>MDB,0.4313797342,0.5557598203,Pass,Pass,0.2550577411,0.4153376566,Pass,Pass
 Warmup Convergence Information,PERIMETER_MID_ZN_1,SizingPeriod: GUANGZHOU ANN CLG 1% CONDNS DP=>MDB,0.3036608842,0.3698277258,Pass,Pass,0.2624931306,0.4139215935,Pass,Pass
 Warmup Convergence Information,PERIMETER_MID_ZN_4,SizingPeriod: GUANGZHOU ANN CLG 1% CONDNS DP=>MDB,0.4061381597,0.5908447196,Pass,Pass,0.2647216831,0.4114256945,Pass,Pass
Environment,GUANGZHOU ANN CLG 2% CONDNS DP=>MDB,SizingPeriod:DesignDay,07/21,07/21,SummerDesignDay,1,N/A,N/A,N/A,N/A,N/A,N/A
Environment:Daylight Saving,No,SizingPeriod:DesignDay
Environment:Design Day Data,29.00,6.90,DefaultMultipliers,100833,160,2.4,0.00,No,No
Environment:Design Day Misc,202,1084.4,0.2082,0.1365,1.0,-6.23,20.6,ASHRAETau
Environment:WarmupDays,  7
 Warmup Convergence Information,CORE_BOTTOM,SizingPeriod: GUANGZHOU ANN CLG 2% CONDNS DP=>MDB,0.5523723869,0.7496125423,Pass,Pass,0.2588635342,0.4977346252,Pass,Pass
 Warmup Convergence Information,TOPFLOOR_PLENUM,SizingPeriod: GUANGZHOU ANN CLG 2% CONDNS DP=>MDB,8.8478904092E-002,6.4882070149E-002,Pass,Pass,0.3001026760,0.5443983457,Pass,Pass
 Warmup Convergence Information,MIDFLOOR_PLENUM,SizingPeriod: GUANGZHOU ANN CLG 2% CONDNS DP=>MDB,7.2573124887E-002,6.9405883557E-002,Pass,Pass,0.4281019659,1.2971526361,Pass,Pass
 Warmup Convergence Information,FIRSTFLOOR_PLENUM,SizingPeriod: GUANGZHOU ANN CLG 2% CONDNS DP=>MDB,0.1174831436,9.8898672484E-002,Pass,Pass,0.3381737213,0.4767462286,Pass,Pass
 Warmup Convergence Information,CORE_MID,SizingPeriod: GUANGZHOU ANN CLG 2% CONDNS DP=>MDB,0.2931722967,0.3638721808,Pass,Pass,0.2611851666,0.4198651896,Pass,Pass
 Warmup Convergence Information,CORE_TOP,SizingPeriod: GUANGZHOU ANN CLG 2% CONDNS DP=>MDB,0.2769904250,0.3182019683,Pass,Pass,0.2518759791,0.3985594739,Pass,Pass
 Warmup Convergence Information,PERIMETER_TOP_ZN_3,SizingPeriod: GUANGZHOU ANN CLG 2% CONDNS DP=>MDB,0.3163509468,0.4081273636,Pass,Pass,0.2443013277,0.4037544772,Pass,Pass
 Warmup Convergence Information,PERIMETER_TOP_ZN_2,SizingPeriod: GUANGZHOU ANN CLG 2% CONDNS DP=>MDB,0.4133664606,0.5615982390,Pass,Pass,0.2415243469,0.4090485265,Pass,Pass
 Warmup Convergence Information,PERIMETER_TOP_ZN_1,SizingPeriod: GUANGZHOU ANN CLG 2% CONDNS DP=>MDB,0.3163626435,0.4068247697,Pass,Pass,0.2440581692,0.4044042509,Pass,Pass
 Warmup Convergence Information,PERIMETER_TOP_ZN_4,SizingPeriod: GUANGZHOU ANN CLG 2% CONDNS DP=>MDB,0.3890333520,0.6182193713,Pass,Pass,0.2495780769,0.4066290565,Pass,Pass
 Warmup Convergence Information,PERIMETER_BOT_ZN_3,SizingPeriod: GUANGZHOU ANN CLG 2% CONDNS DP=>MDB,0.2573779601,0.2906497345,Pass,Pass,0.2412689734,0.3919253381,Pass,Pass
 Warmup Convergence Information,PERIMETER_BOT_ZN_2,SizingPeriod: GUANGZHOU ANN CLG 2% CONDNS DP=>MDB,0.3648654962,0.4620483189,Pass,Pass,0.2313135906,0.3961840876,Pass,Pass
 Warmup Convergence Information,PERIMETER_BOT_ZN_1,SizingPeriod: GUANGZHOU ANN CLG 2% CONDNS DP=>MDB,0.2570544339,0.2919899380,Pass,Pass,0.2422382317,0.3917807794,Pass,Pass
 Warmup Convergence Information,PERIMETER_BOT_ZN_4,SizingPeriod: GUANGZHOU ANN CLG 2% CONDNS DP=>MDB,0.3326504200,0.4886544482,Pass,Pass,0.2413098395,0.3912352752,Pass,Pass
 Warmup Convergence Information,PERIMETER_MID_ZN_3,SizingPeriod: GUANGZHOU ANN CLG 2% CONDNS DP=>MDB,0.3079684732,0.3722053983,Pass,Pass,0.2587923094,0.4128678167,Pass,Pass
 Warmup Convergence Information,PERIMETER_MID_ZN_2,SizingPeriod: GUANGZHOU ANN CLG 2% CONDNS DP=>MDB,0.4304350455,0.5518942494,Pass,Pass,0.2535556538,0.4137010239,Pass,Pass
 Warmup Convergence Information,PERIMETER_MID_ZN_1,SizingPeriod: GUANGZHOU ANN CLG 2% CONDNS DP=>MDB,0.3078668762,0.3729078545,Pass,Pass,0.2595380416,0.4123723482,Pass,Pass
 Warmup Convergence Information,PERIMETER_MID_ZN_4,SizingPeriod: GUANGZHOU ANN CLG 2% CONDNS DP=>MDB,0.4012599478,0.5858107447,Pass,Pass,0.2621608181,0.4099009181,Pass,Pass
Environment,GUANGZHOU ANN CLG .4% CONDNS ENTH=>MDB,SizingPeriod:DesignDay,07/21,07/21,SummerDesignDay,1,N/A,N/A,N/A,N/A,N/A,N/A
Environment:Daylight Saving,No,SizingPeriod:DesignDay
Environment:Design Day Data,32.20,6.90,DefaultMultipliers,100833,160,2.4,0.00,No,No
Environment:Design Day Misc,202,1084.4,0.2082,0.1365,1.0,-6.23,20.6,ASHRAETau
Environment:WarmupDays,  7
 Warmup Convergence Information,CORE_BOTTOM,SizingPeriod: GUANGZHOU ANN CLG .4% CONDNS ENTH=>MDB,0.5011000524,0.7233586859,Pass,Pass,0.2375011235,0.4269709247,Pass,Pass
 Warmup Convergence Information,TOPFLOOR_PLENUM,SizingPeriod: GUANGZHOU ANN CLG .4% CONDNS ENTH=>MDB,7.6656664491E-002,7.7873143289E-002,Pass,Pass,0.3909292851,1.4068474582,Pass,Pass
 Warmup Convergence Information,MIDFLOOR_PLENUM,SizingPeriod: GUANGZHOU ANN CLG .4% CONDNS ENTH=>MDB,6.3654186914E-002,8.3633380083E-002,Pass,Pass,0.2507078291,0.4349658806,Pass,Pass
 Warmup Convergence Information,FIRSTFLOOR_PLENUM,SizingPeriod: GUANGZHOU ANN CLG .4% CONDNS ENTH=>MDB,0.1111121380,0.1240406830,Pass,Pass,0.4567589680,1.2171017038,Pass,Pass
 Warmup Convergence Information,CORE_MID,SizingPeriod: GUANGZHOU ANN CLG .4% CONDNS ENTH=>MDB,0.2702562565,0.3895258533,Pass,Pass,0.2337735551,0.4111759309,Pass,Pass
 Warmup Convergence Information,CORE_TOP,SizingPeriod: GUANGZHOU ANN CLG .4% CONDNS ENTH=>MDB,0.2417475511,0.3678869357,Pass,Pass,0.2454868045,0.4420427827,Pass,Pass
 Warmup Convergence Information,PERIMETER_TOP_ZN_3,SizingPeriod: GUANGZHOU ANN CLG .4% CONDNS ENTH=>MDB,0.2845717781,0.4423693878,Pass,Pass,0.2342847019,0.4070463792,Pass,Pass
 Warmup Convergence Information,PERIMETER_TOP_ZN_2,SizingPeriod: GUANGZHOU ANN CLG .4% CONDNS ENTH=>MDB,0.3505439742,0.5688831596,Pass,Pass,0.2368427963,0.4050100207,Pass,Pass
 Warmup Convergence Information,PERIMETER_TOP_ZN_1,SizingPeriod: GUANGZHOU ANN CLG .4% CONDNS ENTH=>MDB,0.2833688370,0.4430339975,Pass,Pass,0.2353980772,0.4063586919,Pass,Pass
 Warmup Convergence Information,PERIMETER_TOP_ZN_4,SizingPeriod: GUANGZHOU ANN CLG .4% CONDNS ENTH=>MDB,0.3854436847,0.6029295626,Pass,Pass,0.2426380258,0.4048099801,Pass,Pass
 Warmup Convergence Information,PERIMETER_BOT_ZN_3,SizingPeriod: GUANGZHOU ANN CLG .4% CONDNS ENTH=>MDB,0.2386297890,0.3118555374,Pass,Pass,0.2456228168,0.4434775592,Pass,Pass
 Warmup Convergence Information,PERIMETER_BOT_ZN_2,SizingPeriod: GUANGZHOU ANN CLG .4% CONDNS ENTH=>MDB,0.3159938592,0.4162492039,Pass,Pass,0.2472019771,0.4503106776,Pass,Pass
 Warmup Convergence Information,PERIMETER_BOT_ZN_1,SizingPeriod: GUANGZHOU ANN CLG .4% CONDNS ENTH=>MDB,0.2348617987,0.3124315887,Pass,Pass,0.2458446723,0.4427863523,Pass,Pass
 Warmup Convergence Information,PERIMETER_BOT_ZN_4,SizingPeriod: GUANGZHOU ANN CLG .4% CONDNS ENTH=>MDB,0.3256962542,0.4355972206,Pass,Pass,0.2540167808,0.4470658669,Pass,Pass
 Warmup Convergence Information,PERIMETER_MID_ZN_3,SizingPeriod: GUANGZHOU ANN CLG .4% CONDNS ENTH=>MDB,0.2959338018,0.4053253616,Pass,Pass,0.2326176511,0.4086439305,Pass,Pass
 Warmup Convergence Information,PERIMETER_MID_ZN_2,SizingPeriod: GUANGZHOU ANN CLG .4% CONDNS ENTH=>MDB,0.3743492785,0.5612919430,Pass,Pass,0.2419651559,0.4198615727,Pass,Pass
 Warmup Convergence Information,PERIMETER_MID_ZN_1,SizingPeriod: GUANGZHOU ANN CLG .4% CONDNS ENTH=>MDB,0.2956416648,0.4055125020,Pass,Pass,0.2331940671,0.4086673139,Pass,Pass
 Warmup Convergence Information,PERIMETER_MID_ZN_4,SizingPeriod: GUANGZHOU ANN CLG .4% CONDNS ENTH=>MDB,0.4074764861,0.5843464269,Pass,Pass,0.2500077163,0.4195406520,Pass,Pass
Environment,GUANGZHOU ANN CLG 1% CONDNS ENTH=>MDB,SizingPeriod:DesignDay,07/21,07/21,SummerDesignDay,1,N/A,N/A,N/A,N/A,N/A,N/A
Environment:Daylight Saving,No,SizingPeriod:DesignDay
Environment:Design Day Data,31.30,6.90,DefaultMultipliers,100833,160,2.4,0.00,No,No
Environment:Design Day Misc,202,1084.4,0.2082,0.1365,1.0,-6.23,20.6,ASHRAETau
Environment:WarmupDays,  7
 Warmup Convergence Information,CORE_BOTTOM,SizingPeriod: GUANGZHOU ANN CLG 1% CONDNS ENTH=>MDB,0.5253029778,0.7348499002,Pass,Pass,0.2397852127,0.4147985499,Pass,Pass
 Warmup Convergence Information,TOPFLOOR_PLENUM,SizingPeriod: GUANGZHOU ANN CLG 1% CONDNS ENTH=>MDB,6.7124479167E-002,6.5204041470E-002,Pass,Pass,0.2557940808,0.4269479908,Pass,Pass
 Warmup Convergence Information,MIDFLOOR_PLENUM,SizingPeriod: GUANGZHOU ANN CLG 1% CONDNS ENTH=>MDB,6.3863001915E-002,8.9090873962E-002,Pass,Pass,0.2727251960,0.4597887639,Pass,Pass
 Warmup Convergence Information,FIRSTFLOOR_PLENUM,SizingPeriod: GUANGZHOU ANN CLG 1% CONDNS ENTH=>MDB,0.1111596386,0.1180995406,Pass,Pass,0.7514887994,2.9813317655,Pass,Pass
 Warmup Convergence Information,CORE_MID,SizingPeriod: GUANGZHOU ANN CLG 1% CONDNS ENTH=>MDB,0.2758979036,0.3944685461,Pass,Pass,0.2385718271,0.4172030364,Pass,Pass
 Warmup Convergence Information,CORE_TOP,SizingPeriod: GUANGZHOU ANN CLG 1% CONDNS ENTH=>MDB,0.2465728252,0.3843694457,Pass,Pass,0.2332513699,0.4079080483,Pass,Pass
 Warmup Convergence Information,PERIMETER_TOP_ZN_3,SizingPeriod: GUANGZHOU ANN CLG 1% CONDNS ENTH=>MDB,0.2765218529,0.4459918267,Pass,Pass,0.2330478303,0.4052328456,Pass,Pass
 Warmup Convergence Information,PERIMETER_TOP_ZN_2,SizingPeriod: GUANGZHOU ANN CLG 1% CONDNS ENTH=>MDB,0.3490171755,0.5745222241,Pass,Pass,0.2386050005,0.4072453972,Pass,Pass
 Warmup Convergence Information,PERIMETER_TOP_ZN_1,SizingPeriod: GUANGZHOU ANN CLG 1% CONDNS ENTH=>MDB,0.2739185530,0.4442734389,Pass,Pass,0.2336909507,0.4048405451,Pass,Pass
 Warmup Convergence Information,PERIMETER_TOP_ZN_4,SizingPeriod: GUANGZHOU ANN CLG 1% CONDNS ENTH=>MDB,0.3622941414,0.6168564208,Pass,Pass,0.2415171635,0.4057431933,Pass,Pass
 Warmup Convergence Information,PERIMETER_BOT_ZN_3,SizingPeriod: GUANGZHOU ANN CLG 1% CONDNS ENTH=>MDB,0.2419568186,0.2914593965,Pass,Pass,0.2368210627,0.4014397366,Pass,Pass
 Warmup Convergence Information,PERIMETER_BOT_ZN_2,SizingPeriod: GUANGZHOU ANN CLG 1% CONDNS ENTH=>MDB,0.3200876455,0.3892258886,Pass,Pass,0.2351331659,0.4096681023,Pass,Pass
 Warmup Convergence Information,PERIMETER_BOT_ZN_1,SizingPeriod: GUANGZHOU ANN CLG 1% CONDNS ENTH=>MDB,0.2360686174,0.2921833501,Pass,Pass,0.2372548406,0.4017581271,Pass,Pass
 Warmup Convergence Information,PERIMETER_BOT_ZN_4,SizingPeriod: GUANGZHOU ANN CLG 1% CONDNS ENTH=>MDB,0.3206523759,0.4076342241,Pass,Pass,0.2483611030,0.4099833564,Pass,Pass
 Warmup Convergence Information,PERIMETER_MID_ZN_3,SizingPeriod: GUANGZHOU ANN CLG 1% CONDNS ENTH=>MDB,0.2905339906,0.4068037557,Pass,Pass,0.2343689952,0.4068951342,Pass,Pass
 Warmup Convergence Information,PERIMETER_MID_ZN_2,SizingPeriod: GUANGZHOU ANN CLG 1% CONDNS ENTH=>MDB,0.3759861335,0.5584325466,Pass,Pass,0.2377144563,0.4090609585,Pass,Pass
 Warmup Convergence Information,PERIMETER_MID_ZN_1,SizingPeriod: GUANGZHOU ANN CLG 1% CONDNS ENTH=>MDB,0.2880001378,0.4076203824,Pass,Pass,0.2341306074,0.4064192030,Pass,Pass
 Warmup Convergence Information,PERIMETER_MID_ZN_4,SizingPeriod: GUANGZHOU ANN CLG 1% CONDNS ENTH=>MDB,0.3921701733,0.5760050806,Pass,Pass,0.2426438166,0.4073533584,Pass,Pass
Environment,GUANGZHOU ANN CLG 2% CONDNS ENTH=>MDB,SizingPeriod:DesignDay,07/21,07/21,SummerDesignDay,1,N/A,N/A,N/A,N/A,N/A,N/A
Environment:Daylight Saving,No,SizingPeriod:DesignDay
Environment:Design Day Data,31.20,6.90,DefaultMultipliers,100833,160,2.4,0.00,No,No
Environment:Design Day Misc,202,1084.4,0.2082,0.1365,1.0,-6.23,20.6,ASHRAETau
Environment:WarmupDays,  9
 Warmup Convergence Information,CORE_BOTTOM,SizingPeriod: GUANGZHOU ANN CLG 2% CONDNS ENTH=>MDB,0.5252307127,0.7376253098,Pass,Pass,0.2454382687,0.4380028255,Pass,Pass
 Warmup Convergence Information,TOPFLOOR_PLENUM,SizingPeriod: GUANGZHOU ANN CLG 2% CONDNS ENTH=>MDB,6.6846857439E-002,6.5725671268E-002,Pass,Pass,0.2598260443,0.4351728652,Pass,Pass
 Warmup Convergence Information,MIDFLOOR_PLENUM,SizingPeriod: GUANGZHOU ANN CLG 2% CONDNS ENTH=>MDB,6.6506682296E-002,8.9050898944E-002,Pass,Pass,0.2785288898,0.4678536141,Pass,Pass
 Warmup Convergence Information,FIRSTFLOOR_PLENUM,SizingPeriod: GUANGZHOU ANN CLG 2% CONDNS ENTH=>MDB,0.1088742108,0.1165643677,Pass,Pass,0.3673670721,0.8528196706,Pass,Pass
 Warmup Convergence Information,CORE_MID,SizingPeriod: GUANGZHOU ANN CLG 2% CONDNS ENTH=>MDB,0.2813297475,0.3969769142,Pass,Pass,0.2391048643,0.4177777430,Pass,Pass
 Warmup Convergence Information,CORE_TOP,SizingPeriod: GUANGZHOU ANN CLG 2% CONDNS ENTH=>MDB,0.2468028603,0.3840257240,Pass,Pass,0.2308485809,0.4041454163,Pass,Pass
 Warmup Convergence Information,PERIMETER_TOP_ZN_3,SizingPeriod: GUANGZHOU ANN CLG 2% CONDNS ENTH=>MDB,0.2760160221,0.4449741302,Pass,Pass,0.2337166102,0.4052995391,Pass,Pass
 Warmup Convergence Information,PERIMETER_TOP_ZN_2,SizingPeriod: GUANGZHOU ANN CLG 2% CONDNS ENTH=>MDB,0.3486483694,0.5749939126,Pass,Pass,0.2386268988,0.4072626862,Pass,Pass
 Warmup Convergence Information,PERIMETER_TOP_ZN_1,SizingPeriod: GUANGZHOU ANN CLG 2% CONDNS ENTH=>MDB,0.2735374657,0.4435474125,Pass,Pass,0.2341235448,0.4048785773,Pass,Pass
 Warmup Convergence Information,PERIMETER_TOP_ZN_4,SizingPeriod: GUANGZHOU ANN CLG 2% CONDNS ENTH=>MDB,0.3618137751,0.6181229229,Pass,Pass,0.2417108446,0.4056536878,Pass,Pass
 Warmup Convergence Information,PERIMETER_BOT_ZN_3,SizingPeriod: GUANGZHOU ANN CLG 2% CONDNS ENTH=>MDB,0.2410903630,0.2932452673,Pass,Pass,0.2390610166,0.4034543481,Pass,Pass
 Warmup Convergence Information,PERIMETER_BOT_ZN_2,SizingPeriod: GUANGZHOU ANN CLG 2% CONDNS ENTH=>MDB,0.3208969215,0.3934475959,Pass,Pass,0.2357321525,0.4104380885,Pass,Pass
 Warmup Convergence Information,PERIMETER_BOT_ZN_1,SizingPeriod: GUANGZHOU ANN CLG 2% CONDNS ENTH=>MDB,0.2349756618,0.2933545387,Pass,Pass,0.2390760808,0.4032628357,Pass,Pass
 Warmup Convergence Information,PERIMETER_BOT_ZN_4,SizingPeriod: GUANGZHOU ANN CLG 2% CONDNS ENTH=>MDB,0.3223517262,0.4132868012,Pass,Pass,0.2488752562,0.4093477001,Pass,Pass
 Warmup Convergence Information,PERIMETER_MID_ZN_3,SizingPeriod: GUANGZHOU ANN CLG 2% CONDNS ENTH=>MDB,0.2956127732,0.4051855131,Pass,Pass,0.2328446331,0.4034651722,Pass,Pass
 Warmup Convergence Information,PERIMETER_MID_ZN_2,SizingPeriod: GUANGZHOU ANN CLG 2% CONDNS ENTH=>MDB,0.3848172632,0.5558514355,Pass,Pass,0.2351419606,0.4077259036,Pass,Pass
 Warmup Convergence Information,PERIMETER_MID_ZN_1,SizingPeriod: GUANGZHOU ANN CLG 2% CONDNS ENTH=>MDB,0.2917019672,0.4066290001,Pass,Pass,0.2328840518,0.4035161145,Pass,Pass
 Warmup Convergence Information,PERIMETER_MID_ZN_4,SizingPeriod: GUANGZHOU ANN CLG 2% CONDNS ENTH=>MDB,0.3985048052,0.5762875335,Pass,Pass,0.2422104210,0.4056089173,Pass,Pass
Environment,RUN PERIOD 1,WeatherFileRunPeriod,01/01/2017,12/31/2017,Sunday,365,Use RunPeriod Specified Day,No,No,No,Yes,Yes
Environment:Daylight Saving,Yes,InputFile,03/12,11/05
Environment:Special Days,NEW YEARS DAY,Holiday,InputFile,01/01,  1
Environment:Special Days,VETERANS DAY,Holiday,InputFile,11/11,  1
Environment:Special Days,CHRISTMAS,Holiday,InputFile,12/25,  1
Environment:Special Days,INDEPENDENCE DAY,Holiday,InputFile,07/04,  1
Environment:Special Days,MLK DAY,Holiday,InputFile,01/16,  1
Environment:Special Days,PRESIDENTS DAY,Holiday,InputFile,02/20,  1
Environment:Special Days,MEMORIAL DAY,Holiday,InputFile,05/29,  1
Environment:Special Days,LABOR DAY,Holiday,InputFile,09/04,  1
Environment:Special Days,COLUMBUS DAY,Holiday,InputFile,10/09,  1
Environment:Special Days,THANKSGIVING,Holiday,InputFile,11/23,  1
Environment:WarmupDays,  6
 Warmup Convergence Information,CORE_BOTTOM,RunPeriod: RUN PERIOD 1,0.1207350595,0.2230743476,Pass,Pass,0.1053232993,0.3090127890,Pass,Pass
 Warmup Convergence Information,TOPFLOOR_PLENUM,RunPeriod: RUN PERIOD 1,0.1312473608,0.1051314185,Pass,Pass,0.1474142565,0.3722706068,Pass,Pass
 Warmup Convergence Information,MIDFLOOR_PLENUM,RunPeriod: RUN PERIOD 1,3.6764984427E-002,4.6073073603E-002,Pass,Pass,0.1613016174,0.4549208409,Pass,Pass
 Warmup Convergence Information,FIRSTFLOOR_PLENUM,RunPeriod: RUN PERIOD 1,3.6803323456E-002,4.8630150952E-002,Pass,Pass,9.5216925605E-002,0.2854966121,Pass,Pass
 Warmup Convergence Information,CORE_MID,RunPeriod: RUN PERIOD 1,0.1213308156,0.2122554544,Pass,Pass,0.1457121686,0.3528315545,Pass,Pass
 Warmup Convergence Information,CORE_TOP,RunPeriod: RUN PERIOD 1,0.1383888406,0.2126628613,Pass,Pass,0.1550550514,0.3606934369,Pass,Pass
 Warmup Convergence Information,PERIMETER_TOP_ZN_3,RunPeriod: RUN PERIOD 1,0.1833401426,0.2698566270,Pass,Pass,0.1544061526,0.3594475545,Pass,Pass
 Warmup Convergence Information,PERIMETER_TOP_ZN_2,RunPeriod: RUN PERIOD 1,0.2877730888,0.4144493780,Pass,Pass,0.1570954312,0.3670430198,Pass,Pass
 Warmup Convergence Information,PERIMETER_TOP_ZN_1,RunPeriod: RUN PERIOD 1,0.3261273310,0.4245960572,Pass,Pass,0.1564880525,0.3649181593,Pass,Pass
 Warmup Convergence Information,PERIMETER_TOP_ZN_4,RunPeriod: RUN PERIOD 1,0.2895677040,0.4398959842,Pass,Pass,0.1522819745,0.3549339035,Pass,Pass
 Warmup Convergence Information,PERIMETER_BOT_ZN_3,RunPeriod: RUN PERIOD 1,0.1256888468,0.1758503407,Pass,Pass,0.1038615230,0.3047113407,Pass,Pass
 Warmup Convergence Information,PERIMETER_BOT_ZN_2,RunPeriod: RUN PERIOD 1,0.2150500461,0.3179394634,Pass,Pass,0.1062968657,0.3123187062,Pass,Pass
 Warmup Convergence Information,PERIMETER_BOT_ZN_1,RunPeriod: RUN PERIOD 1,0.2424575090,0.2774166955,Pass,Pass,0.1205220215,0.3651619373,Pass,Pass
 Warmup Convergence Information,PERIMETER_BOT_ZN_4,RunPeriod: RUN PERIOD 1,0.2253266475,0.3290078448,Pass,Pass,0.1025835499,0.3013745860,Pass,Pass
 Warmup Convergence Information,PERIMETER_MID_ZN_3,RunPeriod: RUN PERIOD 1,0.1608156779,0.2480826807,Pass,Pass,0.1447832300,0.3508357075,Pass,Pass
 Warmup Convergence Information,PERIMETER_MID_ZN_2,RunPeriod: RUN PERIOD 1,0.2768013983,0.4006716524,Pass,Pass,0.1471362279,0.3576390437,Pass,Pass
 Warmup Convergence Information,PERIMETER_MID_ZN_1,RunPeriod: RUN PERIOD 1,0.2892632927,0.4056170029,Pass,Pass,0.1467139136,0.3577523636,Pass,Pass
 Warmup Convergence Information,PERIMETER_MID_ZN_4,RunPeriod: RUN PERIOD 1,0.2555881839,0.4055903332,Pass,Pass,0.1427226531,0.3460386614,Pass,Pass
! <Program Control Information:Threads/Parallel Sims>, Threading Supported,Maximum Number of Threads, Env Set Threads (OMP_NUM_THREADS), EP Env Set Threads (EP_OMP_NUM_THREADS), IDF Set Threads, Number of Threads Used (Interior Radiant Exchange), Number Nominal Surfaces, Number Parallel Sims
Program Control:Threads/Parallel Sims, No,1, N/A, N/A, N/A, N/A, N/A, N/A
End of Data
